  
 ------------------------------------------------------------------------------- 
 |                               DAFoam v3.0.0                                 | 
 ------------------------------------------------------------------------------- 
   
 /*---------------------------------------------------------------------------*\
| =========                 |                                                 |
| \\      /  F ield         | OpenFOAM: The Open Source CFD Toolbox           |
|  \\    /   O peration     | Version:  v1812                                 |
|   \\  /    A nd           | Web:      www.OpenFOAM.com                      |
|    \\/     M anipulation  |                                                 |
\*---------------------------------------------------------------------------*/
Build  : v1812 OPENFOAM=1812
Arch   : "LSB;label=32;scalar=64"
Exec   : decomposePar
Date   : Feb 28 2022
Time   : 10:23:10
Host   : dg1d6r53.aere.iastate.edu
PID    : 676305
--> FOAM Warning : 
    From function Foam::fileName Foam::cwd_L()
    in file POSIX.C at line 380
    PWD is not the cwd() - reverting to physical description
I/O    : uncollated
--> FOAM Warning : 
    From function Foam::fileName Foam::cwd_L()
    in file POSIX.C at line 380
    PWD is not the cwd() - reverting to physical description
Case   : /home/phe/Dropbox/Codes/dafoam/tests/input/Wing
nProcs : 1
trapFpe: Floating point exception trapping enabled (FOAM_SIGFPE).
fileModificationChecking : Monitoring run-time modified files using timeStampMaster (fileModificationSkew 10)
allowSystemOperations : Allowing user-supplied system call operations

// * * * * * * * * * * * * * * * * * * * * * * * * * * * * * * * * * * * * * //
Create time

Overriding DebugSwitches according to controlDict
    SolverPerformance 0;



Decomposing mesh region0

Create mesh

Calculating distribution of cells
Selecting decompositionMethod scotch [4]

Finished decomposition in 0 s

Calculating original mesh data

Distributing cells to processors

Distributing faces to processors

Distributing points to processors

Constructing processor meshes
Overriding DebugSwitches according to controlDict
    SolverPerformance 0;


Processor 0
    Number of cells = 699
    Number of faces shared with processor 1 = 131
    Number of faces shared with processor 2 = 60
    Number of faces shared with processor 3 = 75
    Number of processor patches = 3
    Number of processor faces = 266
    Number of boundary faces = 246
Overriding DebugSwitches according to controlDict
    SolverPerformance 0;


Processor 1
    Number of cells = 700
    Number of faces shared with processor 0 = 131
    Number of faces shared with processor 2 = 64
    Number of faces shared with processor 3 = 70
    Number of processor patches = 3
    Number of processor faces = 265
    Number of boundary faces = 241
Overriding DebugSwitches according to controlDict
    SolverPerformance 0;


Processor 2
    Number of cells = 686
    Number of faces shared with processor 0 = 60
    Number of faces shared with processor 1 = 64
    Number of faces shared with processor 3 = 168
    Number of processor patches = 3
    Number of processor faces = 292
    Number of boundary faces = 120
Overriding DebugSwitches according to controlDict
    SolverPerformance 0;


Processor 3
    Number of cells = 687
    Number of faces shared with processor 0 = 75
    Number of faces shared with processor 1 = 70
    Number of faces shared with processor 2 = 168
    Number of processor patches = 3
    Number of processor faces = 313
    Number of boundary faces = 139

Number of processor faces = 568
Max number of cells = 700 (1.01010101% above average 693)
Max number of processor patches = 3 (0% above average 3)
Max number of faces between processors = 313 (10.21126761% above average 284)

Time = 0

Processor 0: field transfer
Overriding DebugSwitches according to controlDict
    SolverPerformance 0;

Processor 1: field transfer
Overriding DebugSwitches according to controlDict
    SolverPerformance 0;

Processor 2: field transfer
Overriding DebugSwitches according to controlDict
    SolverPerformance 0;

Processor 3: field transfer
Overriding DebugSwitches according to controlDict
    SolverPerformance 0;


End

I/O    : uncollated
--> FOAM Warning : 
    From function Foam::fileName Foam::cwd_L()
    in file POSIX.C at line 380
    PWD is not the cwd() - reverting to physical description
Case   : /home/phe/Dropbox/Codes/dafoam/tests/input/Wing
nProcs : 4
Hosts  :
(
    (dg1d6r53.aere.iastate.edu 4)
)
Pstream initialized with:
    floatTransfer      : 0
    nProcsSimpleSum    : 0
    commsType          : nonBlocking
    polling iterations : 0
Create time

Overriding DebugSwitches according to controlDict
    SolverPerformance 0;

Create mesh for time = 0
Initializing mesh and runtime for DASolver
I/O    : uncollated
--> FOAM Warning : 
    From function Foam::fileName Foam::cwd_L()
    in file POSIX.C at line 380
    PWD is not the cwd() - reverting to physical description
Case   : /home/phe/Dropbox/Codes/dafoam/tests/input/Wing
nProcs : 4
Hosts  :
(
    (dg1d6r53.aere.iastate.edu 4)
)
Pstream initialized with:
    floatTransfer      : 0
    nProcsSimpleSum    : 0
    commsType          : nonBlocking
    polling iterations : 0
Create time

Overriding DebugSwitches according to controlDict
    SolverPerformance 0;

Create mesh for time = 0
Initializing mesh and runtime for DASolver
Initializing fields for DARhoSimpleFoam
Create simpleControl.

SIMPLE: no convergence criteria found. Calculations will run for 1000 steps.

Reading thermophysical properties

Selecting thermodynamics package 
{
    mixture         pureMixture;
    specie          specie;
    equationOfState perfectGas;
    energy          sensibleInternalEnergy;
    thermo          hConst;
    type            hePsiThermo;
    transport       const;
}

Reading field U

Reading/calculating face flux field phi

Creating source term. 
Creating turbulence model

Selecting turbulence model type RAS
Selecting RAS turbulence model SpalartAllmaras
Selecting patchDistMethod meshWaveFrozen
No MRF models present

Adjoint States: 
5
(
U volVectorState
nuTilda modelState
phi surfaceScalarState
p volScalarState
T volScalarState
)
Global Cells: 2772
Global Faces: 9257
Global Xv: 11436
Undecomposed points: 3168
Global Adjoint States: 25889

SIMPLE: no convergence criteria found. Calculations will run for 1000 steps.

DACheckMesh Thresholds: 
maxNonOrth: 70
maxSkewness: 8
maxAspectRatio: 5000
maxIncorrectlyOrientedFaces: 0
    Adding all faces of patches 1(wing) ...
    Found matching patch wing with 66 faces.
    Adding all faces of patches 1(wing) ...
    Found matching patch wing with 66 faces.
Initializing fields for DARhoSimpleFoam
Create simpleControl.

SIMPLE: no convergence criteria found. Calculations will run for 1000 steps.

Reading thermophysical properties

Selecting thermodynamics package 
{
    mixture         pureMixture;
    specie          specie;
    equationOfState perfectGas;
    energy          sensibleInternalEnergy;
    thermo          hConst;
    type            hePsiThermo;
    transport       const;
}

Reading field U

Reading/calculating face flux field phi

Creating source term. 
Creating turbulence model

Selecting turbulence model type RAS
Selecting RAS turbulence model SpalartAllmaras
Selecting patchDistMethod meshWaveFrozen
No MRF models present

Adjoint States: 
5
(
U volVectorState
nuTilda modelState
phi surfaceScalarState
p volScalarState
T volScalarState
)
Global Cells: 2772
Global Faces: 9257
Global Xv: 11436
Undecomposed points: 3168
Global Adjoint States: 25889

SIMPLE: no convergence criteria found. Calculations will run for 1000 steps.

DACheckMesh Thresholds: 
maxNonOrth: 70
maxSkewness: 8
maxAspectRatio: 5000
maxIncorrectlyOrientedFaces: 0
    Adding all faces of patches 1(wing) ...
    Found matching patch wing with 66 faces.
    Adding all faces of patches 1(wing) ...
    Found matching patch wing with 66 faces.
DAFoam option dictionary: 
{
    solverName      DARhoSimpleFoam;
    primalMinResTol 1e-08;
    primalBC
    {
        U0
        {
            variable        U;
            patches         1 ( inout );
            value           3 ( 200 0 0 );
        }
        p0
        {
            variable        p;
            patches         1 ( inout );
            value           1 ( 101325 );
        }
        T0
        {
            variable        T;
            patches         1 ( inout );
            value           1 ( 300 );
        }
        nuTilda0
        {
            variable        nuTilda;
            patches         1 ( inout );
            value           1 ( 4.5e-05 );
        }
        useWallFunction 0;
    }
    normalizeStates
    {
        p               101325;
        phi             1;
        U               200;
        T               300;
        nuTilda         0.001;
        k               1;
        epsilon         1;
        omega           1;
        p_rgh           1;
        D               1;
    }
    objFunc
    {
        CD
        {
            part1
            {
                type            force;
                source          patchToFace;
                patches         1 ( wing );
                directionMode   parallelToFlow;
                alphaName       aoa;
                scale           9.337812447e-07;
                addToAdjoint    1;
            }
        }
        CL
        {
            part1
            {
                type            force;
                source          patchToFace;
                patches         1 ( wing );
                directionMode   normalToFlow;
                alphaName       aoa;
                scale           9.337812447e-07;
                addToAdjoint    1;
            }
        }
    }
    designVar
    {
        aoa
        {
            designVarType   AOA;
            patches         1 ( inout );
            flowAxis        x;
            normalAxis      y;
        }
        twist
        {
            designVarType   FFD;
        }
        shape
        {
            designVarType   FFD;
        }
    }
    designSurfaces  1 ( wing );
    fsi
    {
        pRef            101325;
    }
    primalOnly      0;
    fvSource
    {
    }
    primalVarBounds
    {
        UMax            1000;
        UMin            -1000;
        pMax            500000;
        pMin            20000;
        p_rghMax        1e+16;
        p_rghMin        -1e+16;
        eMax            500000;
        eMin            100000;
        TMax            1e+16;
        TMin            -1e+16;
        hMax            1e+16;
        hMin            -1e+16;
        DMax            1e+16;
        DMin            -1e+16;
        rhoMax          5;
        rhoMin          0.2;
        nuTildaMax      1e+16;
        nuTildaMin      1e-16;
        kMax            1e+16;
        kMin            1e-16;
        omegaMax        1e+16;
        omegaMin        1e-16;
        epsilonMax      1e+16;
        epsilonMin      1e-16;
        ReThetatMax     1e+16;
        ReThetatMin     1e-16;
        gammaIntMax     1e+16;
        gammaIntMin     1e-16;
    }
    multiPoint      0;
    nMultiPoints    1;
    adjPartDerivFDStep
    {
        State           1e-06;
        FFD             0.001;
        BC              0.01;
        AOA             0.001;
        ACTP            0.01;
        ACTD            0.01;
        ACTL            0.01;
    }
    transonicPCOption -1;
    unsteadyAdjoint
    {
        mode            None;
        nTimeInstances  -1;
        periodicity     -1;
    }
    objFuncAvgStart 1;
    adjPCLag        1;
    useAD
    {
        mode            reverse;
        dvName          None;
        seedIndex       -9999;
    }
    rigidBodyMotion
    {
        mode            dummy;
    }
    rootDir         None;
    runStatus       None;
    printPYDAFOAMOptions 0;
    printDAOptions  1;
    debug           0;
    writeJacobians  1 ( None );
    printInterval   100;
    printIntervalUnsteady 500;
    primalMinResTolDiff 100;
    adjUseColoring  1;
    adjEqnOption
    {
        globalPCIters   0;
        asmOverlap      1;
        localPCIters    1;
        jacMatReOrdering rcm;
        pcFillLevel     1;
        gmresMaxIters   1000;
        gmresRestart    1000;
        gmresRelTol     0.01;
        gmresAbsTol     1e-14;
        gmresTolDiff    100;
        useNonZeroInitGuess 1;
        printInfo       1;
    }
    normalizeResiduals 10 ( URes pRes p_rghRes nuTildaRes phiRes TRes DRes kRes omegaRes epsilonRes );
    maxResConLv4JacPCMat
    {
        pRes            2;
        phiRes          1;
        URes            2;
        TRes            2;
        nuTildaRes      2;
        kRes            2;
        epsilonRes      2;
        omegaRes        2;
        p_rghRes        2;
        DRes            2;
    }
    jacLowerBounds
    {
        dRdW            1e-30;
        dRdWPC          1e-30;
    }
    maxTractionBCIters 100;
    decomposeParDict
    {
        method          scotch;
        simpleCoeffs
        {
            n               3 ( 2 2 1 );
            delta           0.001;
        }
        preservePatches 1 ( None );
    }
    adjStateOrdering state;
    meshSurfaceFamily None;
    designSurfaceFamily designSurfaces;
    checkMeshThreshold
    {
        maxAspectRatio  5000;
        maxNonOrth      70;
        maxSkewness     8;
        maxIncorrectlyOrientedFaces 0;
    }
    writeSensMap    1 ( NONE );
    writeDeformedFFDs 0;
    maxCorrectBCCalls 10;
    writeMinorIterations 0;
    runLowOrderPrimal4PC
    {
        active          0;
    }
}

Reading OpenFOAM mesh information... 
 I/O    : uncollated
--> FOAM Warning : 
    From function Foam::fileName Foam::cwd_L()
    in file POSIX.C at line 380
    PWD is not the cwd() - reverting to physical description
Case   : /home/phe/Dropbox/Codes/dafoam/tests/input/Wing
nProcs : 4
Hosts  :
(
    (dg1d6r53.aere.iastate.edu 4)
)
Pstream initialized with:
    floatTransfer      : 0
    nProcsSimpleSum    : 0
    commsType          : nonBlocking
    polling iterations : 0
Reading the OpenFOAM mesh..
Overriding DebugSwitches according to controlDict
    SolverPerformance 0;

Finalising parallel run
Checking if we need to compress the mesh files 
 Checking if we need to compress the mesh files 
I/O    : uncollated
 pyDAFoam initialization done! 
 +---------------------------------------+ 
 |     All IDWarp Options:               | 
 +---------------------------------------+ 
 { 'LdefFact' :  1.0 ,
  'aExp' :  3.0 ,
  'alpha' :  0.25 ,
  'bExp' :  5.0 ,
  'bucketSize' :  8 ,
  'cornerAngle' :  30.0 ,
  'errTol' :  0.0005 ,
  'evalMode' :  'fast' ,
  'fileType' :  'OpenFOAM' ,
  'gridFile' :  '/home/phe/Dropbox/Codes/dafoam/tests/input/Wing' ,
  'restartFile' :  None ,
  'specifiedSurfaces' :  None ,
  'symmTol' :  1e-06 ,
  'symmetryPlanes' :  [[[0.0, 0.0, 0.0], [0.0, 0.0, 1.0]]] ,
  'symmetrySurfaces' :  None ,
  'useRotations' :  False ,
  'zeroCornerRotations' :  True } 
I/O    : uncollated
--> FOAM Warning : 
    From function Foam::fileName Foam::cwd_L()
    in file POSIX.C at line 380
    PWD is not the cwd() - reverting to physical description
Case   : /home/phe/Dropbox/Codes/dafoam/tests/input/Wing
nProcs : 4
Hosts  :
(
    (dg1d6r53.aere.iastate.edu 4)
)
Pstream initialized with:
    floatTransfer      : 0
    nProcsSimpleSum    : 0
    commsType          : nonBlocking
    polling iterations : 0
Reading the OpenFOAM mesh..
Overriding DebugSwitches according to controlDict
    SolverPerformance 0;

Finalising parallel run
 Checking if we need to compress the mesh files 
 Checking if we need to compress the mesh files 
#------------------------------#
 Total Volume Nodes :      3812 
#------------------------------#
I/O    : uncollated
 +-------------------- Symmetry Planes -------------------+ 
 |           Point                        Normal          | 
 | (  0.000   0.000   0.000)    (  0.000   0.000   1.000) | 
 +--------------------------------------------------------+ 
#--------------------------------#
 Unique Surface Nodes :       264 
#--------------------------------#
 Computing Denomenator Estimate...
 Load Balancing...
 Finished Mesh Initialization.
 OrderedDict([('inout', [0]), ('procBoundary0to1', [1]), ('procBoundary0to2', [2]), ('procBoundary0to3', [3]), ('sym', [4]), ('wing', [5]), ('allSurfaces', [0, 1, 2, 3, 4, 5]), ('allWalls', [5]), ('designSurfaces', [5])]) 
 [32m[1mINFO:    bdf.py:2338                      rejecting card_name = 'ENDBULK'
[32m[1mINFO:    bdf.py:2338                      rejecting card_name = 'ENDBULK'
[32m[1mINFO:    bdf.py:2338                      rejecting card_name = 'ENDBULK'
[32m[1mINFO:    bdf.py:2338                      rejecting card_name = 'ENDBULK'
[0] Creating TACSAssembler with numOwnedNodes = 1809 numElements = 1908
[3] Creating TACSAssembler with numOwnedNodes = 1825 numElements = 1908
[1] Creating TACSAssembler with numOwnedNodes = 1823 numElements = 1908
[2] Creating TACSAssembler with numOwnedNodes = 1889 numElements = 1908
[0] TACSAssembler: Total dof = 44076 Total nodes = 7346 Total elements = 7632
Transfer scheme [0]: Creating scheme of type MELD...
dRdWT Jacobian Free created!
 
 
 +--------------------------------------------------------------------------+ 
 |                       Running Coloring Solver                            | 
 +--------------------------------------------------------------------------+ 
 I/O    : uncollated
--> FOAM Warning : 
    From function Foam::fileName Foam::cwd_L()
    in file POSIX.C at line 380
    PWD is not the cwd() - reverting to physical description
Case   : /home/phe/Dropbox/Codes/dafoam/tests/input/Wing
nProcs : 4
Hosts  :
(
    (dg1d6r53.aere.iastate.edu 4)
)
Pstream initialized with:
    floatTransfer      : 0
    nProcsSimpleSum    : 0
    commsType          : nonBlocking
    polling iterations : 0
Create time

Overriding DebugSwitches according to controlDict
    SolverPerformance 0;

Create mesh for time = 0
Selecting thermodynamics package 
{
    mixture         pureMixture;
    specie          specie;
    equationOfState perfectGas;
    energy          sensibleInternalEnergy;
    thermo          hConst;
    type            hePsiThermo;
    transport       const;
}

Selecting turbulence model type RAS
Selecting RAS turbulence model SpalartAllmaras
Selecting patchDistMethod meshWaveFrozen
Checking if Coloring file exists..
dRdWCon Created. 2 s
Calculating dRdW Coloring... 2 s
Calculating dRdW Coloring..
Parallel Distance 2 Graph Coloring....
MaxCols: 304
AllNonZeros: 3899734
nUniqueCols: 11866
ColorSweep: 0   2 s
number of uncolored: 10203 4
ColorSweep: 100   3 s
number of uncolored: 6443 4
ColorSweep: 200   3 s
number of uncolored: 4147 4
ColorSweep: 300   4 s
number of uncolored: 2093 4
ColorSweep: 400   5 s
number of uncolored: 402 4
ColorSweep: 441   5 s
number of uncolored: 0 0
Global ColorSweep: 0   5 s
Number of Uncolored: 15606 4
Global ColorSweep: 100   7 s
Number of Uncolored: 14541 4
Global ColorSweep: 200   10 s
Number of Uncolored: 13705 4
Global ColorSweep: 300   13 s
Number of Uncolored: 12921 4
Global ColorSweep: 400   15 s
Number of Uncolored: 11982 4
Global ColorSweep: 500   18 s
Number of Uncolored: 10503 4
Global ColorSweep: 600   20 s
Number of Uncolored: 8907 4
Global ColorSweep: 700   23 s
Number of Uncolored: 7291 4
Global ColorSweep: 800   25 s
Number of Uncolored: 5674 4
Global ColorSweep: 900   28 s
Number of Uncolored: 4098 4
Global ColorSweep: 1000   30 s
Number of Uncolored: 2600 4
Global ColorSweep: 1100   32 s
Number of Uncolored: 1179 4
Global ColorSweep: 1200   34 s
Number of Uncolored: 210 4
Global ColorSweep: 1243   35 s
Number of Uncolored: 0 0
Ncolors: 1244
Validating Coloring...
No Conflicting Colors Found!
 nJacConColors: 1244
Writing Colors to dRdWColoring_4
Calculating dRdW Coloring... Completed! 36 s
Checking if Coloring file exists..
    Adding all faces of patches 1(wing) ...
    Found matching patch wing with 66 faces.
dFdWCon Created!
Setting up dFdWCon..
dFdWCon Created. 36 s
Calculating dFdW CD-part1 Coloring... 36 s
Calculating dFdW Coloring..
Parallel Distance 2 Graph Coloring....
MaxCols: 21
AllNonZeros: 5226
nUniqueCols: 663
ColorSweep: 0   36 s
number of uncolored: 1900 3
ColorSweep: 42   36 s
number of uncolored: 0 0
Global ColorSweep: 0   36 s
Number of Uncolored: 192 3
Global ColorSweep: 42   36 s
Number of Uncolored: 0 0
Ncolors: 43
Validating Coloring...
No Conflicting Colors Found!
 nJacConColors: 43
Writing Colors to dFdWColoring_CD_part1_4
Calculating dFdW CD-part1 Coloring... Completed36 s
Checking if Coloring file exists..
    Adding all faces of patches 1(wing) ...
    Found matching patch wing with 66 faces.
dFdWCon Created!
Setting up dFdWCon..
dFdWCon Created. 36 s
Calculating dFdW CL-part1 Coloring... 36 s
Calculating dFdW Coloring..
Parallel Distance 2 Graph Coloring....
MaxCols: 21
AllNonZeros: 5226
nUniqueCols: 663
ColorSweep: 0   36 s
number of uncolored: 1900 3
ColorSweep: 42   36 s
number of uncolored: 0 0
Global ColorSweep: 0   36 s
Number of Uncolored: 192 3
Global ColorSweep: 42   36 s
Number of Uncolored: 0 0
Ncolors: 43
Validating Coloring...
No Conflicting Colors Found!
 nJacConColors: 43
Writing Colors to dFdWColoring_CL_part1_4
Calculating dFdW CL-part1 Coloring... Completed36 s
Finalising parallel run
[2] BCSRMat: ILU(1000) Input fill ratio 20.00, actual fill ratio: 5.27, nnz(ILU) = 85771
[1] BCSRMat: ILU(1000) Input fill ratio 20.00, actual fill ratio: 4.96, nnz(ILU) = 77439
[0] BCSRMat: ILU(1000) Input fill ratio 20.00, actual fill ratio: 5.39, nnz(ILU) = 88205
[3] BCSRMat: ILU(1000) Input fill ratio 20.00, actual fill ratio: 5.24, nnz(ILU) = 81123
[3] TACSBlockCyclicMat: (1668,1668) Initial density: 0.851 factor fill in: 0.000
[1] BCSRMat: ILU(1000) Input fill ratio 20.00, actual fill ratio: 4.96, nnz(ILU) = 77439
[3] BCSRMat: ILU(1000) Input fill ratio 20.00, actual fill ratio: 5.24, nnz(ILU) = 81123
[2] BCSRMat: ILU(1000) Input fill ratio 20.00, actual fill ratio: 5.27, nnz(ILU) = 85771
[0] BCSRMat: ILU(1000) Input fill ratio 20.00, actual fill ratio: 5.39, nnz(ILU) = 88205
[3] TACSBlockCyclicMat: (1668,1668) Initial density: 0.851 factor fill in: 0.000
   Driver debug print for iter coord: rank0:pyOptSparse_SLSQP|0 
 ------------------------------------------------------------ 
 Design Vars 
 { 'dvs.aoa' :  array([2.]) ,
  'dvs.shape' :  array([0., 0., 0., 0., 0., 0., 0., 0., 0., 0., 0., 0., 0., 0., 0., 0., 0.,
       0., 0., 0., 0., 0., 0., 0., 0., 0., 0., 0., 0., 0., 0., 0., 0., 0.,
       0., 0., 0., 0., 0., 0., 0., 0., 0., 0., 0., 0., 0., 0., 0., 0., 0.,
       0., 0., 0., 0., 0., 0., 0., 0., 0., 0., 0., 0., 0., 0., 0., 0., 0.,
       0., 0., 0., 0., 0., 0., 0., 0., 0., 0., 0., 0., 0., 0., 0., 0., 0.,
       0., 0., 0., 0., 0., 0., 0., 0., 0., 0., 0.]) ,
  'dvs.twist' :  array([0., 0., 0., 0., 0., 0., 0.]) } 
 
 
===============
cruise.coupling
=============== 
 
 
 +------------------------------------------------------+ 
 |          Evaluating Objective Functions 001          | 
 +------------------------------------------------------+ 
 Setting up primal boundary conditions based on pyOptions: 
Setting primal boundary conditions...
Setting U = (199.8781654 6.979899341 0) at inout
Setting primal boundary conditions...
Setting p = 101325 at inout
Setting primal boundary conditions...
Setting T = 300 at inout
Setting primal boundary conditions...
Setting nuTilda = 4.5e-05 at inout
I/O    : uncollated
Setting nut wall BC for wing. BCType=nutLowReWallFunction
Running Primal Solver 001 
 Previous solution time -1e+10 not found and nothing deleted. 
 No finite volume options present

Starting time loop

Checking mesh quality for time = 0
    Overall domain bounding box (-202.9936582 -212.815875 0) (234.5335372 213.2421418 252.0393408)
    Mesh has 3 geometric (non-empty/wedge) directions 3{1}
    Mesh has 3 solution (non-empty) directions 3{1}
    Boundary openness (2.524962339e-19 -8.034808335e-18 7.175089512e-17) OK.
    Max cell openness = 4.557420439e-15 OK.
    Max aspect ratio = 131.6533413 OK.
    Minimum face area = 6.738742804e-05. Maximum face area = 6482.785147.  Face area magnitudes OK.
    Min volume = 0.0001973803947. Max volume = 97724.32437.  Total volume = 24497378.14.  Cell volumes OK.
    Mesh non-orthogonality Max: 51.83926407 average: 13.7035455
    Non-orthogonality check OK.
    Face pyramids OK.
    Max skewness = 5.659128881 OK.
    Coupled point location match (average 0) OK.

Mesh OK.

Time = 1

U Initial residual: (1 1 1)
U   Final residual: (0.04193889188 0.04193889084 0.04996098875)
he Initial residual: 1
he   Final residual: 0.04218164064
p Initial residual: 1
p   Final residual: 0.03870421686
Time step continuity errors : sum local = 0.01451848568
                                 global = -0.009067028963
                             cumulative = -0.009067028963
nuTilda Initial residual: 1
          Final residual: 0.03685590295
Bounding nuTilda>1e-16
yPlus min: 162.3930856 max: 1014.632137 mean: 385.3619052
CD-part1-force: 0.02642330741
CL-part1-force: 0.0009801977579
ExecutionTime = 35.66 s  ClockTime = 38 s

Time = 100

U Initial residual: (9.035459622e-08 1.135758039e-06 1.196627756e-07)
U   Final residual: (5.707302648e-09 3.986032987e-08 9.4894128e-09)
he Initial residual: 3.067819666e-07
he   Final residual: 2.554327799e-08
p Initial residual: 9.595246324e-06
p   Final residual: 4.975154909e-07
Time step continuity errors : sum local = 1.446009313e-09
                                 global = -5.169225018e-10
                             cumulative = -0.00906702948
nuTilda Initial residual: 7.7912939e-09
          Final residual: 4.71538838e-10
Bounding nuTilda>1e-16
yPlus min: 218.9344086 max: 1442.573608 mean: 521.1646922
CD-part1-force: 0.03923555688
CL-part1-force: 0.3488528061
ExecutionTime = 35.88 s  ClockTime = 38 s

Time = 120
Minimal residual 9.223101571e-09 satisfied the prescribed tolerance 1e-08

CD-part1-force: 0.03923547135
CL-part1-force: 0.348854586
Printing Primal Residual Statistics.
U Residual Norm2: (31.84474979 15.57873803 11.26094799)
U Residual Mean: (0.05416098191 0.05043482454 0.03615856134)
U Residual Max: (24.31400952 7.738778655 7.12830626)
p Residual Norm2: 0.5196736147
p Residual Mean: 0.001246738533
p Residual Max: 0.2810671656
T Residual Norm2: 1771.728154
T Residual Mean: 4.14807081
T Residual Max: 915.2909133
nuTilda Residual Norm2: 0.2215457607
nuTilda Residual Mean: 0.0003738295449
nuTilda Residual Max: 0.1186421614
phi Residual Norm2: 0.01562131541
phi Residual Mean: 2.262919497e-05
phi Residual Max: 0.006842426407
End

Computing surface forces 
 Total force: 
 Fx = 2.895402e+04 
 Fy = 3.748323e+05 
 Fz = -6.793095e+03 
 NL: NLBGS 1 ; 12195186.8 1 
 
 
 +------------------------------------------------------+ 
 |          Evaluating Objective Functions 002          | 
 +------------------------------------------------------+ 
 Setting up primal boundary conditions based on pyOptions: 
Setting primal boundary conditions...
Setting U = (199.8781654 6.979899341 0) at inout
Setting primal boundary conditions...
Setting p = 101325 at inout
Setting primal boundary conditions...
Setting T = 300 at inout
Setting primal boundary conditions...
Setting nuTilda = 4.5e-05 at inout
Setting nut wall BC for wing. BCType=nutLowReWallFunction
Running Primal Solver 002 
 Previous solution time 120 found and deleted. 
 No finite volume options present

Starting time loop

Checking mesh quality for time = 0
    Overall domain bounding box (-202.9978074 -212.5857874 0) (234.5291294 213.4725095 252.0395681)
    Mesh has 3 geometric (non-empty/wedge) directions 3{1}
    Mesh has 3 solution (non-empty) directions 3{1}
    Boundary openness (4.33760669e-18 2.421359446e-17 1.904991506e-17) OK.
    Max cell openness = 1.611160281e-15 OK.
    Max aspect ratio = 103.158556 OK.
    Minimum face area = 6.736718308e-05. Maximum face area = 6482.795872.  Face area magnitudes OK.
    Min volume = 0.0001979355323. Max volume = 97716.82319.  Total volume = 24497388.73.  Cell volumes OK.
    Mesh non-orthogonality Max: 52.71233418 average: 13.9228626
    Non-orthogonality check OK.
    Face pyramids OK.
    Max skewness = 6.158933964 OK.
    Coupled point location match (average 0) OK.

Mesh OK.

Time = 1

U Initial residual: (3.906097585e-05 0.0009013740172 0.0001283364036)
U   Final residual: (1.809691151e-06 4.968794649e-05 6.715490094e-06)
he Initial residual: 6.838653877e-05
he   Final residual: 3.003711076e-06
p Initial residual: 0.01097500526
p   Final residual: 0.000812322254
Time step continuity errors : sum local = 2.358268186e-06
                                 global = 1.871783335e-07
                             cumulative = -0.009066842302
nuTilda Initial residual: 3.220582065e-06
          Final residual: 1.313929843e-07
Bounding nuTilda>1e-16
yPlus min: 219.2384923 max: 1505.253576 mean: 521.9942071
CD-part1-force: 0.03186932847
CL-part1-force: 0.2754270018
ExecutionTime = 36.78 s  ClockTime = 39 s

Time = 91
Minimal residual 9.933424773e-09 satisfied the prescribed tolerance 1e-08

CD-part1-force: 0.03390289236
CL-part1-force: 0.2558813805
Printing Primal Residual Statistics.
U Residual Norm2: (2.289589908 1.568754527 0.8215100418)
U Residual Mean: (0.005243067415 0.004770770002 0.003096778091)
U Residual Max: (1.866338 0.8670748526 0.2966062058)
p Residual Norm2: 0.08225431562
p Residual Mean: 0.0001718807824
p Residual Max: 0.05215351782
T Residual Norm2: 92.7779055
T Residual Mean: 0.3542458096
T Residual Max: 25.80535576
nuTilda Residual Norm2: 0.02869595212
nuTilda Residual Mean: 6.428682308e-05
nuTilda Residual Max: 0.02131486045
phi Residual Norm2: 0.0022237019
phi Residual Mean: 3.103374351e-06
phi Residual Max: 0.00124935217
End

Computing surface forces 
 Total force: 
 Fx = 2.672158e+04 
 Fy = 2.751273e+05 
 Fz = -1.959737e+04 
 NL: NLBGS 2 ; 43710.096 0.0035842088 
 
 
 +------------------------------------------------------+ 
 |          Evaluating Objective Functions 003          | 
 +------------------------------------------------------+ 
 Setting up primal boundary conditions based on pyOptions: 
Setting primal boundary conditions...
Setting U = (199.8781654 6.979899341 0) at inout
Setting primal boundary conditions...
Setting p = 101325 at inout
Setting primal boundary conditions...
Setting T = 300 at inout
Setting primal boundary conditions...
Setting nuTilda = 4.5e-05 at inout
Setting nut wall BC for wing. BCType=nutLowReWallFunction
Running Primal Solver 003 
 Previous solution time 91 found and deleted. 
 No finite volume options present

Starting time loop

Checking mesh quality for time = 0
    Overall domain bounding box (-202.995881 -212.661454 0) (234.5311846 213.3967503 252.0394647)
    Mesh has 3 geometric (non-empty/wedge) directions 3{1}
    Mesh has 3 solution (non-empty) directions 3{1}
    Boundary openness (-1.458047931e-17 2.354330267e-17 -2.340327808e-17) OK.
    Max cell openness = 4.608639769e-15 OK.
    Max aspect ratio = 92.07727834 OK.
    Minimum face area = 6.738193172e-05. Maximum face area = 6482.792751.  Face area magnitudes OK.
    Min volume = 0.0001976588022. Max volume = 97719.27887.  Total volume = 24497384.16.  Cell volumes OK.
    Mesh non-orthogonality Max: 52.1601551 average: 13.80360584
    Non-orthogonality check OK.
    Face pyramids OK.
    Max skewness = 5.634903917 OK.
    Coupled point location match (average 0) OK.

Mesh OK.

Time = 1

U Initial residual: (1.833978182e-05 0.0003865395512 7.444105743e-05)
U   Final residual: (8.610296856e-07 2.081780919e-05 4.475755208e-06)
he Initial residual: 3.023944695e-05
he   Final residual: 1.268834972e-06
p Initial residual: 0.001523293524
p   Final residual: 8.254532673e-05
Time step continuity errors : sum local = 6.420685332e-07
                                 global = -5.132804016e-08
                             cumulative = -0.00906689363
nuTilda Initial residual: 1.221646569e-06
          Final residual: 4.817208507e-08
Bounding nuTilda>1e-16
yPlus min: 219.9449046 max: 1413.391522 mean: 523.3364828
CD-part1-force: 0.03550780246
CL-part1-force: 0.2761405801
ExecutionTime = 37.96 s  ClockTime = 40 s

Time = 83
Minimal residual 9.457397427e-09 satisfied the prescribed tolerance 1e-08

CD-part1-force: 0.03507976562
CL-part1-force: 0.2817239894
Printing Primal Residual Statistics.
U Residual Norm2: (0.7235750426 0.4540048028 0.2232013091)
U Residual Mean: (0.001609794412 0.001509208517 0.0009301746411)
U Residual Max: (0.5353513066 0.2302439066 0.08447795108)
p Residual Norm2: 0.02162002208
p Residual Mean: 4.934923662e-05
p Residual Max: 0.01345083108
T Residual Norm2: 31.27561027
T Residual Mean: 0.1161938384
T Residual Max: 10.93554832
nuTilda Residual Norm2: 0.007100116474
nuTilda Residual Mean: 1.588867291e-05
nuTilda Residual Max: 0.005581755109
phi Residual Norm2: 0.0005879109847
phi Residual Mean: 9.210289485e-07
phi Residual Max: 0.0003244681273
End

Computing surface forces 
 Total force: 
 Fx = 2.701529e+04 
 Fy = 3.028296e+05 
 Fz = -1.628161e+04 
 NL: NLBGS 3 ; 9353.11717 0.000766951527 
 
 
 +------------------------------------------------------+ 
 |          Evaluating Objective Functions 004          | 
 +------------------------------------------------------+ 
 Setting up primal boundary conditions based on pyOptions: 
Setting primal boundary conditions...
Setting U = (199.8781654 6.979899341 0) at inout
Setting primal boundary conditions...
Setting p = 101325 at inout
Setting primal boundary conditions...
Setting T = 300 at inout
Setting primal boundary conditions...
Setting nuTilda = 4.5e-05 at inout
Setting nut wall BC for wing. BCType=nutLowReWallFunction
Running Primal Solver 004 
 Previous solution time 83 found and deleted. 
 No finite volume options present

Starting time loop

Checking mesh quality for time = 0
    Overall domain bounding box (-202.9963149 -212.6449896 0) (234.5307217 213.4132348 252.0394878)
    Mesh has 3 geometric (non-empty/wedge) directions 3{1}
    Mesh has 3 solution (non-empty) directions 3{1}
    Boundary openness (9.33572906e-18 -7.563640028e-18 1.378367152e-16) OK.
    Max cell openness = 3.595021444e-15 OK.
    Max aspect ratio = 72.33913218 OK.
    Minimum face area = 6.737945895e-05. Maximum face area = 6482.793426.  Face area magnitudes OK.
    Min volume = 0.0001977099074. Max volume = 97718.74626.  Total volume = 24497385.17.  Cell volumes OK.
    Mesh non-orthogonality Max: 52.28052262 average: 13.82547713
    Non-orthogonality check OK.
    Face pyramids OK.
    Max skewness = 5.825363487 OK.
    Coupled point location match (average 0) OK.

Mesh OK.

Time = 1

U Initial residual: (1.292589286e-05 0.0004662947153 5.384420773e-05)
U   Final residual: (6.706760166e-07 2.600647955e-05 4.153742147e-06)
he Initial residual: 2.196506551e-05
he   Final residual: 1.039773053e-06
p Initial residual: 0.0009830350161
p   Final residual: 5.479267077e-05
Time step continuity errors : sum local = 3.723101734e-07
                                 global = 2.320193363e-08
                             cumulative = -0.009066870428
nuTilda Initial residual: 2.889461293e-07
          Final residual: 1.113749761e-08
Bounding nuTilda>1e-16
yPlus min: 219.7188534 max: 1436.499195 mean: 523.3049458
CD-part1-force: 0.03470780299
CL-part1-force: 0.2776980882
ExecutionTime = 39.07 s  ClockTime = 41 s

Time = 77
Minimal residual 9.088044123e-09 satisfied the prescribed tolerance 1e-08

CD-part1-force: 0.03480579519
CL-part1-force: 0.2761213569
Printing Primal Residual Statistics.
U Residual Norm2: (0.2331523496 0.1469047817 0.07089560608)
U Residual Mean: (0.0005988507065 0.0005219630973 0.0003156028439)
U Residual Max: (0.1635130702 0.07284910293 0.02676774876)
p Residual Norm2: 0.006927335063
p Residual Mean: 1.741691528e-05
p Residual Max: 0.004260730493
T Residual Norm2: 11.86480694
T Residual Mean: 0.0575406358
T Residual Max: 3.287023567
nuTilda Residual Norm2: 0.002275096962
nuTilda Residual Mean: 5.214587937e-06
nuTilda Residual Max: 0.001764652474
phi Residual Norm2: 0.0001890879788
phi Residual Mean: 3.405390983e-07
phi Residual Max: 0.0001025695042
End

Computing surface forces 
 Total force: 
 Fx = 2.693146e+04 
 Fy = 2.968231e+05 
 Fz = -1.708873e+04 
 NL: NLBGS 4 ; 79.0932376 6.48561097e-06 
 
 
 +------------------------------------------------------+ 
 |          Evaluating Objective Functions 005          | 
 +------------------------------------------------------+ 
 Setting up primal boundary conditions based on pyOptions: 
Setting primal boundary conditions...
Setting U = (199.8781654 6.979899341 0) at inout
Setting primal boundary conditions...
Setting p = 101325 at inout
Setting primal boundary conditions...
Setting T = 300 at inout
Setting primal boundary conditions...
Setting nuTilda = 4.5e-05 at inout
Setting nut wall BC for wing. BCType=nutLowReWallFunction
Running Primal Solver 005 
 Previous solution time 77 found and deleted. 
 No finite volume options present

Starting time loop

Checking mesh quality for time = 0
    Overall domain bounding box (-202.9963128 -212.6450436 0) (234.530724 213.4131807 252.0394877)
    Mesh has 3 geometric (non-empty/wedge) directions 3{1}
    Mesh has 3 solution (non-empty) directions 3{1}
    Boundary openness (1.263557175e-17 -1.056934285e-17 4.242452564e-17) OK.
    Max cell openness = 2.437379649e-15 OK.
    Max aspect ratio = 72.42466631 OK.
    Minimum face area = 6.737946815e-05. Maximum face area = 6482.793424.  Face area magnitudes OK.
    Min volume = 0.0001977097341. Max volume = 97718.74794.  Total volume = 24497385.16.  Cell volumes OK.
    Mesh non-orthogonality Max: 52.28012296 average: 13.82540198
    Non-orthogonality check OK.
    Face pyramids OK.
    Max skewness = 5.824718812 OK.
    Coupled point location match (average 0) OK.

Mesh OK.

Time = 1

U Initial residual: (1.101253514e-05 0.0004420677374 4.689025771e-05)
U   Final residual: (5.919857542e-07 2.469263226e-05 3.903381393e-06)
he Initial residual: 1.88435821e-05
he   Final residual: 9.179392316e-07
p Initial residual: 0.0007092285328
p   Final residual: 6.436513536e-05
Time step continuity errors : sum local = 4.523823854e-07
                                 global = -1.068550503e-08
                             cumulative = -0.009066881114
nuTilda Initial residual: 2.022085168e-09
          Final residual: 7.946148789e-11
Bounding nuTilda>1e-16
yPlus min: 219.7721215 max: 1436.186108 mean: 523.3562477
CD-part1-force: 0.03480684458
CL-part1-force: 0.2761287754
ExecutionTime = 40.24 s  ClockTime = 43 s

Time = 41
Minimal residual 9.131548576e-09 satisfied the prescribed tolerance 1e-08

CD-part1-force: 0.03480662141
CL-part1-force: 0.2761387558
Printing Primal Residual Statistics.
U Residual Norm2: (0.06506903803 0.04872178012 0.05206830673)
U Residual Mean: (0.000373261599 0.0003036281886 0.0002700835361)
U Residual Max: (0.01721541348 0.01286864059 0.01923952988)
p Residual Norm2: 0.002416920787
p Residual Mean: 1.186411348e-05
p Residual Max: 0.0007241874874
T Residual Norm2: 8.760634104
T Residual Mean: 0.05762706048
T Residual Max: 2.945632601
nuTilda Residual Norm2: 0.0003636883319
nuTilda Residual Mean: 8.590509185e-07
nuTilda Residual Max: 0.0002645785019
phi Residual Norm2: 5.899100353e-05
phi Residual Mean: 2.680328075e-07
phi Residual Max: 1.737229324e-05
End

Computing surface forces 
 Total force: 
 Fx = 2.693170e+04 
 Fy = 2.968418e+05 
 Fz = -1.708611e+04 
 NL: NLBGS 5 ; 17.3196612 1.42020466e-06 
 
 
 +------------------------------------------------------+ 
 |          Evaluating Objective Functions 006          | 
 +------------------------------------------------------+ 
 Setting up primal boundary conditions based on pyOptions: 
Setting primal boundary conditions...
Setting U = (199.8781654 6.979899341 0) at inout
Setting primal boundary conditions...
Setting p = 101325 at inout
Setting primal boundary conditions...
Setting T = 300 at inout
Setting primal boundary conditions...
Setting nuTilda = 4.5e-05 at inout
Setting nut wall BC for wing. BCType=nutLowReWallFunction
Running Primal Solver 006 
 Previous solution time 41 found and deleted. 
 No finite volume options present

Starting time loop

Checking mesh quality for time = 0
    Overall domain bounding box (-202.9963125 -212.6450445 0) (234.5307242 213.4131799 252.0394877)
    Mesh has 3 geometric (non-empty/wedge) directions 3{1}
    Mesh has 3 solution (non-empty) directions 3{1}
    Boundary openness (4.15383631e-18 9.603767523e-18 -1.532249884e-16) OK.
    Max cell openness = 3.330421638e-15 OK.
    Max aspect ratio = 72.42627141 OK.
    Minimum face area = 6.737946839e-05. Maximum face area = 6482.793424.  Face area magnitudes OK.
    Min volume = 0.000197709732. Max volume = 97718.74796.  Total volume = 24497385.16.  Cell volumes OK.
    Mesh non-orthogonality Max: 52.28011557 average: 13.82540088
    Non-orthogonality check OK.
    Face pyramids OK.
    Max skewness = 5.824708553 OK.
    Coupled point location match (average 0) OK.

Mesh OK.

Time = 1

U Initial residual: (1.100790819e-05 0.0004421318537 4.68745483e-05)
U   Final residual: (5.91849343e-07 2.469673092e-05 3.903197923e-06)
he Initial residual: 1.883679061e-05
he   Final residual: 9.179381648e-07
p Initial residual: 0.0007086613118
p   Final residual: 6.411860934e-05
Time step continuity errors : sum local = 4.506039491e-07
                                 global = -1.070196635e-08
                             cumulative = -0.009066891816
nuTilda Initial residual: 6.06738409e-10
          Final residual: 3.309783343e-11
Bounding nuTilda>1e-16
yPlus min: 219.7719376 max: 1436.18604 mean: 523.3561128
CD-part1-force: 0.03480661538
CL-part1-force: 0.2761388601
ExecutionTime = 41.48 s  ClockTime = 44 s

Time = 38
Minimal residual 7.876679897e-09 satisfied the prescribed tolerance 1e-08

CD-part1-force: 0.03480662183
CL-part1-force: 0.276138812
Printing Primal Residual Statistics.
U Residual Norm2: (0.03281692758 0.0272414757 0.03212676039)
U Residual Mean: (0.0002105518395 0.0001761961396 0.0002210207387)
U Residual Max: (0.01146279869 0.009587088898 0.005762079446)
p Residual Norm2: 0.00218644067
p Residual Mean: 8.18420695e-06
p Residual Max: 0.0009789223808
T Residual Norm2: 7.378046588
T Residual Mean: 0.04778629718
T Residual Max: 2.219544237
nuTilda Residual Norm2: 6.779584261e-05
nuTilda Residual Mean: 1.702906039e-07
nuTilda Residual Max: 4.992461613e-05
phi Residual Norm2: 4.084317195e-05
phi Residual Mean: 1.968711896e-07
phi Residual Max: 9.093514134e-06
End

Computing surface forces 
 Total force: 
 Fx = 2.693170e+04 
 Fy = 2.968418e+05 
 Fz = -1.708606e+04 
 NL: NLBGS 6 ; 1.12921898 9.25954638e-08 
 
 
 +------------------------------------------------------+ 
 |          Evaluating Objective Functions 007          | 
 +------------------------------------------------------+ 
 Setting up primal boundary conditions based on pyOptions: 
Setting primal boundary conditions...
Setting U = (199.8781654 6.979899341 0) at inout
Setting primal boundary conditions...
Setting p = 101325 at inout
Setting primal boundary conditions...
Setting T = 300 at inout
Setting primal boundary conditions...
Setting nuTilda = 4.5e-05 at inout
Setting nut wall BC for wing. BCType=nutLowReWallFunction
Running Primal Solver 007 
 Previous solution time 38 found and deleted. 
 No finite volume options present

Starting time loop

Checking mesh quality for time = 0
    Overall domain bounding box (-202.9963125 -212.6450445 0) (234.5307242 213.4131799 252.0394877)
    Mesh has 3 geometric (non-empty/wedge) directions 3{1}
    Mesh has 3 solution (non-empty) directions 3{1}
    Boundary openness (2.135638225e-17 4.224648385e-17 1.030526776e-16) OK.
    Max cell openness = 1.815238907e-15 OK.
    Max aspect ratio = 72.42631447 OK.
    Minimum face area = 6.737946839e-05. Maximum face area = 6482.793424.  Face area magnitudes OK.
    Min volume = 0.000197709732. Max volume = 97718.74795.  Total volume = 24497385.16.  Cell volumes OK.
    Mesh non-orthogonality Max: 52.28011537 average: 13.82540086
    Non-orthogonality check OK.
    Face pyramids OK.
    Max skewness = 5.824708345 OK.
    Coupled point location match (average 0) OK.

Mesh OK.

Time = 1

U Initial residual: (1.100810653e-05 0.0004421295652 4.687632037e-05)
U   Final residual: (5.918839902e-07 2.469636521e-05 3.903362592e-06)
he Initial residual: 1.88350069e-05
he   Final residual: 9.17752571e-07
p Initial residual: 0.0007086692334
p   Final residual: 6.411678498e-05
Time step continuity errors : sum local = 4.505912214e-07
                                 global = -1.070878831e-08
                             cumulative = -0.009066902524
nuTilda Initial residual: 5.936782678e-10
          Final residual: 3.257594413e-11
Bounding nuTilda>1e-16
yPlus min: 219.7719344 max: 1436.186069 mean: 523.3561147
CD-part1-force: 0.03480661289
CL-part1-force: 0.2761388942
ExecutionTime = 42.64 s  ClockTime = 45 s

Time = 38
Minimal residual 7.718963858e-09 satisfied the prescribed tolerance 1e-08

CD-part1-force: 0.03480662124
CL-part1-force: 0.2761388015
Printing Primal Residual Statistics.
U Residual Norm2: (0.0323595167 0.02691799564 0.03157574087)
U Residual Mean: (0.0002077655496 0.0001708560395 0.0002173388862)
U Residual Max: (0.01147867028 0.00965122896 0.005566309849)
p Residual Norm2: 0.002166488044
p Residual Mean: 7.912144011e-06
p Residual Max: 0.0009838141159
T Residual Norm2: 7.146907164
T Residual Mean: 0.0463571474
T Residual Max: 2.117199985
nuTilda Residual Norm2: 3.992369391e-05
nuTilda Residual Mean: 1.231851526e-07
nuTilda Residual Max: 1.036161706e-05
phi Residual Norm2: 4.012456355e-05
phi Residual Mean: 1.931846812e-07
phi Residual Max: 9.147959425e-06
End

Computing surface forces 
 Total force: 
 Fx = 2.693170e+04 
 Fy = 2.968418e+05 
 Fz = -1.708606e+04 
 NL: NLBGS 7 ; 0.00517396601 4.24262955e-10 
 NL: NLBGS Converged 
 Nonlinear constraints 
 { 'cruise.aero_post.CL' :  array([0.2761388015338472]) ,
  'geometry.thickcon' :  array([1.                , 1.                , 0.9999999999999993,
       0.9999999999999992, 1.                , 0.9999999999999998,
       1.                , 0.9999999999999996, 0.999999999999999 ,
       1.0000000000000044, 0.9999999999999998, 1.0000000000000007,
       0.9999999999999994, 0.9999999999999996, 1.                ,
       0.9999999999999999, 0.9999999999999997, 0.9999999999999998,
       1.0000000000000009, 0.9999999999999992, 0.9999999999999996,
       1.0000000000000002, 0.9999999999999998, 1.0000000000000004,
       0.9999999999999996, 0.9999999999999998, 1.                ,
       0.9999999999999998, 1.0000000000000002, 1.0000000000000013,
       1.0000000000000002, 1.0000000000000004, 1.0000000000000004,
       0.9999999999999998, 1.0000000000000002, 1.0000000000000002,
       1.0000000000000004, 1.0000000000000002, 1.0000000000000018,
       1.0000000000000009, 0.9999999999999999, 1.                ,
       0.9999999999999997, 0.9999999999999999, 0.9999999999999997,
       1.0000000000000004, 1.0000000000000002, 0.9999999999999999,
       1.0000000000000009, 1.000000000000006 , 0.9999999999999891,
       0.9999999999999993, 1.0000000000000007, 0.9999999999999997,
       1.0000000000000007, 1.0000000000000058, 1.                ,
       0.9999999999999957, 0.9999999999999989, 1.0000000000000797,
       0.9999999999999996, 0.9999999999999998, 1.                ,
       0.999999999999999 , 1.000000000000001 , 1.0000000000000002,
       0.9999999999999994, 1.0000000000000453, 1.0000000000000004,
       0.9999999999997847, 0.9999999999999996, 0.9999999999999997,
       1.0000000000000002, 1.                , 1.0000000000000002,
       1.                , 1.                , 0.9999999999999998,
       1.000000000000001 , 1.0000000000000007, 1.0000000000000004,
       0.9999999999999994, 1.                , 1.                ,
       1.0000000000000002, 0.9999999999999999, 1.0000000000000004,
       0.9999999999999993, 0.9999999999999991, 0.9999999999999992,
       1.0000000000000004, 0.9999999999999998, 1.                ,
       0.9999999999999996, 0.9999999999999997, 1.                ,
       0.9999999999999993, 0.9999999999999997, 1.0000000000000002,
       1.000000000000001 ]) ,
  'geometry.volcon' :  array([1.0000000000000406]) } 
 
 Objectives 
 {'cruise.aero_post.CD': array([0.0348066212386693])} 
 
 
 
 +------------------------------------------------------+ 
 |    Evaluating Objective Function Sensitivities 001   | 
 +------------------------------------------------------+ 
 Moving time 38 to 0.00000001 
 Driver debug print for iter coord: rank0:pyOptSparse_SLSQP|1 
 ------------------------------------------------------------ 
 Design Vars 
 { 'dvs.aoa' :  array([2.]) ,
  'dvs.shape' :  array([0., 0., 0., 0., 0., 0., 0., 0., 0., 0., 0., 0., 0., 0., 0., 0., 0.,
       0., 0., 0., 0., 0., 0., 0., 0., 0., 0., 0., 0., 0., 0., 0., 0., 0.,
       0., 0., 0., 0., 0., 0., 0., 0., 0., 0., 0., 0., 0., 0., 0., 0., 0.,
       0., 0., 0., 0., 0., 0., 0., 0., 0., 0., 0., 0., 0., 0., 0., 0., 0.,
       0., 0., 0., 0., 0., 0., 0., 0., 0., 0., 0., 0., 0., 0., 0., 0., 0.,
       0., 0., 0., 0., 0., 0., 0., 0., 0., 0., 0.]) ,
  'dvs.twist' :  array([0., 0., 0., 0., 0., 0., 0.]) } 
 
 
===============
cruise.coupling
=============== 
 
 
 +------------------------------------------------------+ 
 |          Evaluating Objective Functions 008          | 
 +------------------------------------------------------+ 
 Setting up primal boundary conditions based on pyOptions: 
Setting primal boundary conditions...
Setting U = (199.8781654 6.979899341 0) at inout
Setting primal boundary conditions...
Setting p = 101325 at inout
Setting primal boundary conditions...
Setting T = 300 at inout
Setting primal boundary conditions...
Setting nuTilda = 4.5e-05 at inout
Setting nut wall BC for wing. BCType=nutLowReWallFunction
Running Primal Solver 008 
 Previous solution time 38 not found and nothing deleted. 
 No finite volume options present

Starting time loop

Checking mesh quality for time = 0
    Overall domain bounding box (-202.9963125 -212.6450445 0) (234.5307242 213.4131799 252.0394877)
    Mesh has 3 geometric (non-empty/wedge) directions 3{1}
    Mesh has 3 solution (non-empty) directions 3{1}
    Boundary openness (8.497651301e-18 1.00012298e-17 9.122259323e-17) OK.
    Max cell openness = 2.516705259e-15 OK.
    Max aspect ratio = 72.42632714 OK.
    Minimum face area = 6.73794684e-05. Maximum face area = 6482.793424.  Face area magnitudes OK.
    Min volume = 0.000197709732. Max volume = 97718.74796.  Total volume = 24497385.16.  Cell volumes OK.
    Mesh non-orthogonality Max: 52.28011531 average: 13.82540085
    Non-orthogonality check OK.
    Face pyramids OK.
    Max skewness = 5.824708248 OK.
    Coupled point location match (average 0) OK.

Mesh OK.

Time = 1

U Initial residual: (1.100810761e-05 0.000442129461 4.687630529e-05)
U   Final residual: (5.918852094e-07 2.469637212e-05 3.903363417e-06)
he Initial residual: 1.883503297e-05
he   Final residual: 9.177619227e-07
p Initial residual: 0.0007086685827
p   Final residual: 6.411679537e-05
Time step continuity errors : sum local = 4.505913005e-07
                                 global = -1.070888642e-08
                             cumulative = -0.009066913233
nuTilda Initial residual: 5.932051741e-10
          Final residual: 3.252520085e-11
Bounding nuTilda>1e-16
yPlus min: 219.7719344 max: 1436.18606 mean: 523.356115
CD-part1-force: 0.03480661308
CL-part1-force: 0.2761388889
ExecutionTime = 45.02 s  ClockTime = 47 s

Time = 38
Minimal residual 7.719998346e-09 satisfied the prescribed tolerance 1e-08

CD-part1-force: 0.03480662138
CL-part1-force: 0.2761388045
Printing Primal Residual Statistics.
U Residual Norm2: (0.0324080952 0.02692759551 0.03156198426)
U Residual Mean: (0.000208243122 0.0001707605235 0.0002172534174)
U Residual Max: (0.01147657187 0.009690585139 0.00556300326)
p Residual Norm2: 0.002166556516
p Residual Mean: 7.887078873e-06
p Residual Max: 0.0009841636246
T Residual Norm2: 7.144201526
T Residual Mean: 0.04636532862
T Residual Max: 2.115354999
nuTilda Residual Norm2: 3.872595744e-05
nuTilda Residual Mean: 1.180280885e-07
nuTilda Residual Max: 1.035421531e-05
phi Residual Norm2: 4.011330504e-05
phi Residual Mean: 1.931454471e-07
phi Residual Max: 9.151235667e-06
End

Computing surface forces 
 Total force: 
 Fx = 2.693170e+04 
 Fy = 2.968418e+05 
 Fz = -1.708606e+04 
 NL: NLBGS 1 ; 0.00153825902 1 
 
 
 +------------------------------------------------------+ 
 |          Evaluating Objective Functions 009          | 
 +------------------------------------------------------+ 
 Setting up primal boundary conditions based on pyOptions: 
Setting primal boundary conditions...
Setting U = (199.8781654 6.979899341 0) at inout
Setting primal boundary conditions...
Setting p = 101325 at inout
Setting primal boundary conditions...
Setting T = 300 at inout
Setting primal boundary conditions...
Setting nuTilda = 4.5e-05 at inout
Setting nut wall BC for wing. BCType=nutLowReWallFunction
Running Primal Solver 009 
 Previous solution time 38 found and deleted. 
 No finite volume options present

Starting time loop

Checking mesh quality for time = 0
    Overall domain bounding box (-202.9963125 -212.6450445 0) (234.5307242 213.4131799 252.0394877)
    Mesh has 3 geometric (non-empty/wedge) directions 3{1}
    Mesh has 3 solution (non-empty) directions 3{1}
    Boundary openness (2.707536774e-17 2.860786749e-19 1.390976423e-16) OK.
    Max cell openness = 2.498329242e-15 OK.
    Max aspect ratio = 72.42632327 OK.
    Minimum face area = 6.73794684e-05. Maximum face area = 6482.793424.  Face area magnitudes OK.
    Min volume = 0.000197709732. Max volume = 97718.74796.  Total volume = 24497385.16.  Cell volumes OK.
    Mesh non-orthogonality Max: 52.28011533 average: 13.82540085
    Non-orthogonality check OK.
    Face pyramids OK.
    Max skewness = 5.824708278 OK.
    Coupled point location match (average 0) OK.

Mesh OK.

Time = 1

U Initial residual: (1.100810756e-05 0.0004421294622 4.687630497e-05)
U   Final residual: (5.918851826e-07 2.469637193e-05 3.90336338e-06)
he Initial residual: 1.883503146e-05
he   Final residual: 9.177618019e-07
p Initial residual: 0.0007086686138
p   Final residual: 6.411681571e-05
Time step continuity errors : sum local = 4.50591436e-07
                                 global = -1.070884642e-08
                             cumulative = -0.009066923942
nuTilda Initial residual: 5.931630278e-10
          Final residual: 3.251974599e-11
Bounding nuTilda>1e-16
yPlus min: 219.7719344 max: 1436.186063 mean: 523.3561151
CD-part1-force: 0.03480661299
CL-part1-force: 0.2761388903
ExecutionTime = 46.01 s  ClockTime = 48 s

Time = 38
Minimal residual 7.719633564e-09 satisfied the prescribed tolerance 1e-08

CD-part1-force: 0.03480662134
CL-part1-force: 0.2761388037
Printing Primal Residual Statistics.
U Residual Norm2: (0.03241351252 0.0269145688 0.03155071486)
U Residual Mean: (0.0002082825048 0.0001706570329 0.0002172148728)
U Residual Max: (0.01147603158 0.009681589152 0.005564145087)
p Residual Norm2: 0.002166080505
p Residual Mean: 7.88051857e-06
p Residual Max: 0.0009840803385
T Residual Norm2: 7.144631759
T Residual Mean: 0.04636584594
T Residual Max: 2.115719194
nuTilda Residual Norm2: 3.862712793e-05
nuTilda Residual Mean: 1.171239777e-07
nuTilda Residual Max: 1.033927516e-05
phi Residual Norm2: 4.010325723e-05
phi Residual Mean: 1.931043485e-07
phi Residual Max: 9.150476259e-06
End

Computing surface forces 
 Total force: 
 Fx = 2.693170e+04 
 Fy = 2.968418e+05 
 Fz = -1.708606e+04 
 NL: NLBGS 2 ; 0.000394290767 0.25632274 
 
 
 +------------------------------------------------------+ 
 |          Evaluating Objective Functions 010          | 
 +------------------------------------------------------+ 
 Setting up primal boundary conditions based on pyOptions: 
Setting primal boundary conditions...
Setting U = (199.8781654 6.979899341 0) at inout
Setting primal boundary conditions...
Setting p = 101325 at inout
Setting primal boundary conditions...
Setting T = 300 at inout
Setting primal boundary conditions...
Setting nuTilda = 4.5e-05 at inout
Setting nut wall BC for wing. BCType=nutLowReWallFunction
Running Primal Solver 010 
 Previous solution time 38 found and deleted. 
 No finite volume options present

Starting time loop

Checking mesh quality for time = 0
    Overall domain bounding box (-202.9963125 -212.6450445 0) (234.5307242 213.4131799 252.0394877)
    Mesh has 3 geometric (non-empty/wedge) directions 3{1}
    Mesh has 3 solution (non-empty) directions 3{1}
    Boundary openness (1.919937901e-17 8.566001813e-18 6.085824066e-17) OK.
    Max cell openness = 6.453051694e-15 OK.
    Max aspect ratio = 72.42632431 OK.
    Minimum face area = 6.73794684e-05. Maximum face area = 6482.793424.  Face area magnitudes OK.
    Min volume = 0.000197709732. Max volume = 97718.74796.  Total volume = 24497385.16.  Cell volumes OK.
    Mesh non-orthogonality Max: 52.28011532 average: 13.82540085
    Non-orthogonality check OK.
    Face pyramids OK.
    Max skewness = 5.82470827 OK.
    Coupled point location match (average 0) OK.

Mesh OK.

Time = 1

U Initial residual: (1.100810756e-05 0.0004421294605 4.687630491e-05)
U   Final residual: (5.91885188e-07 2.469637194e-05 3.903363382e-06)
he Initial residual: 1.883503191e-05
he   Final residual: 9.177618174e-07
p Initial residual: 0.0007086686023
p   Final residual: 6.411681012e-05
Time step continuity errors : sum local = 4.505913992e-07
                                 global = -1.070885129e-08
                             cumulative = -0.009066934651
nuTilda Initial residual: 5.931556165e-10
          Final residual: 3.251736626e-11
Bounding nuTilda>1e-16
yPlus min: 219.7719344 max: 1436.186062 mean: 523.3561151
CD-part1-force: 0.03480661301
CL-part1-force: 0.2761388899
ExecutionTime = 46.99 s  ClockTime = 49 s

Time = 38
Minimal residual 7.719751176e-09 satisfied the prescribed tolerance 1e-08

CD-part1-force: 0.03480662135
CL-part1-force: 0.2761388039
Printing Primal Residual Statistics.
U Residual Norm2: (0.03241614157 0.02691628577 0.03155089484)
U Residual Mean: (0.0002083016578 0.0001706603054 0.0002172132593)
U Residual Max: (0.01147614386 0.009684172328 0.005563791683)
p Residual Norm2: 0.002166148748
p Residual Mean: 7.880080284e-06
p Residual Max: 0.0009841062648
T Residual Norm2: 7.144393611
T Residual Mean: 0.04636564466
T Residual Max: 2.115610292
nuTilda Residual Norm2: 3.863882898e-05
nuTilda Residual Mean: 1.170667518e-07
nuTilda Residual Max: 1.034111897e-05
phi Residual Norm2: 4.010408278e-05
phi Residual Mean: 1.93106474e-07
phi Residual Max: 9.150714303e-06
End

Computing surface forces 
 Total force: 
 Fx = 2.693170e+04 
 Fy = 2.968418e+05 
 Fz = -1.708606e+04 
 NL: NLBGS 3 ; 8.64654404e-05 0.0562099354 
 
 
 +------------------------------------------------------+ 
 |          Evaluating Objective Functions 011          | 
 +------------------------------------------------------+ 
 Setting up primal boundary conditions based on pyOptions: 
Setting primal boundary conditions...
Setting U = (199.8781654 6.979899341 0) at inout
Setting primal boundary conditions...
Setting p = 101325 at inout
Setting primal boundary conditions...
Setting T = 300 at inout
Setting primal boundary conditions...
Setting nuTilda = 4.5e-05 at inout
Setting nut wall BC for wing. BCType=nutLowReWallFunction
Running Primal Solver 011 
 Previous solution time 38 found and deleted. 
 No finite volume options present

Starting time loop

Checking mesh quality for time = 0
    Overall domain bounding box (-202.9963125 -212.6450445 0) (234.5307242 213.4131799 252.0394877)
    Mesh has 3 geometric (non-empty/wedge) directions 3{1}
    Mesh has 3 solution (non-empty) directions 3{1}
    Boundary openness (-4.788784581e-18 1.896623236e-17 1.629822179e-16) OK.
    Max cell openness = 3.525759022e-15 OK.
    Max aspect ratio = 72.42632408 OK.
    Minimum face area = 6.73794684e-05. Maximum face area = 6482.793424.  Face area magnitudes OK.
    Min volume = 0.000197709732. Max volume = 97718.74796.  Total volume = 24497385.16.  Cell volumes OK.
    Mesh non-orthogonality Max: 52.28011532 average: 13.82540085
    Non-orthogonality check OK.
    Face pyramids OK.
    Max skewness = 5.824708272 OK.
    Coupled point location match (average 0) OK.

Mesh OK.

Time = 1

U Initial residual: (1.100810755e-05 0.0004421294606 4.687630491e-05)
U   Final residual: (5.918851858e-07 2.469637192e-05 3.903363381e-06)
he Initial residual: 1.883503172e-05
he   Final residual: 9.177617987e-07
p Initial residual: 0.0007086686058
p   Final residual: 6.411681186e-05
Time step continuity errors : sum local = 4.505914102e-07
                                 global = -1.0708848e-08
                             cumulative = -0.00906694536
nuTilda Initial residual: 5.931554207e-10
          Final residual: 3.251729501e-11
Bounding nuTilda>1e-16
yPlus min: 219.7719344 max: 1436.186062 mean: 523.3561151
CD-part1-force: 0.03480661301
CL-part1-force: 0.2761388901
ExecutionTime = 48.1 s  ClockTime = 50 s

Time = 38
Minimal residual 7.719746639e-09 satisfied the prescribed tolerance 1e-08

CD-part1-force: 0.03480662134
CL-part1-force: 0.2761388039
Printing Primal Residual Statistics.
U Residual Norm2: (0.03241623488 0.02691551641 0.03155030989)
U Residual Mean: (0.0002083021774 0.0001706548766 0.0002172114239)
U Residual Max: (0.01147611065 0.009683524695 0.005563875939)
p Residual Norm2: 0.002166120335
p Residual Mean: 7.879786796e-06
p Residual Max: 0.0009840999764
T Residual Norm2: 7.144434131
T Residual Mean: 0.04636569577
T Residual Max: 2.115636079
nuTilda Residual Norm2: 3.863515651e-05
nuTilda Residual Mean: 1.170737643e-07
nuTilda Residual Max: 1.034023936e-05
phi Residual Norm2: 4.010353324e-05
phi Residual Mean: 1.931042567e-07
phi Residual Max: 9.150657016e-06
End

Computing surface forces 
 Total force: 
 Fx = 2.693170e+04 
 Fy = 2.968418e+05 
 Fz = -1.708606e+04 
 NL: NLBGS 4 ; 6.70715502e-06 0.00436022472 
 
 
 +------------------------------------------------------+ 
 |          Evaluating Objective Functions 012          | 
 +------------------------------------------------------+ 
 Setting up primal boundary conditions based on pyOptions: 
Setting primal boundary conditions...
Setting U = (199.8781654 6.979899341 0) at inout
Setting primal boundary conditions...
Setting p = 101325 at inout
Setting primal boundary conditions...
Setting T = 300 at inout
Setting primal boundary conditions...
Setting nuTilda = 4.5e-05 at inout
Setting nut wall BC for wing. BCType=nutLowReWallFunction
Running Primal Solver 012 
 Previous solution time 38 found and deleted. 
 No finite volume options present

Starting time loop

Checking mesh quality for time = 0
    Overall domain bounding box (-202.9963125 -212.6450445 0) (234.5307242 213.4131799 252.0394877)
    Mesh has 3 geometric (non-empty/wedge) directions 3{1}
    Mesh has 3 solution (non-empty) directions 3{1}
    Boundary openness (-1.376856495e-17 2.120778227e-17 5.532206835e-17) OK.
    Max cell openness = 2.589463848e-15 OK.
    Max aspect ratio = 72.42632408 OK.
    Minimum face area = 6.73794684e-05. Maximum face area = 6482.793424.  Face area magnitudes OK.
    Min volume = 0.000197709732. Max volume = 97718.74796.  Total volume = 24497385.16.  Cell volumes OK.
    Mesh non-orthogonality Max: 52.28011532 average: 13.82540085
    Non-orthogonality check OK.
    Face pyramids OK.
    Max skewness = 5.824708272 OK.
    Coupled point location match (average 0) OK.

Mesh OK.

Time = 1

U Initial residual: (1.100810755e-05 0.0004421294605 4.68763049e-05)
U   Final residual: (5.91885186e-07 2.469637192e-05 3.903363381e-06)
he Initial residual: 1.883503175e-05
he   Final residual: 9.177618041e-07
p Initial residual: 0.0007086686051
p   Final residual: 6.411681166e-05
Time step continuity errors : sum local = 4.505914084e-07
                                 global = -1.070884867e-08
                             cumulative = -0.009066956069
nuTilda Initial residual: 5.931554627e-10
          Final residual: 3.251719815e-11
Bounding nuTilda>1e-16
yPlus min: 219.7719344 max: 1436.186062 mean: 523.3561151
CD-part1-force: 0.03480661301
CL-part1-force: 0.27613889
ExecutionTime = 49.12 s  ClockTime = 51 s

Time = 38
Minimal residual 7.719731902e-09 satisfied the prescribed tolerance 1e-08

CD-part1-force: 0.03480662134
CL-part1-force: 0.2761388039
Printing Primal Residual Statistics.
U Residual Norm2: (0.0324163402 0.02691560303 0.03155032994)
U Residual Mean: (0.0002083029512 0.0001706551325 0.0002172113903)
U Residual Max: (0.01147610784 0.009683641358 0.005563858448)
p Residual Norm2: 0.002166123612
p Residual Mean: 7.879774874e-06
p Residual Max: 0.0009841012312
T Residual Norm2: 7.144422821
T Residual Mean: 0.04636567575
T Residual Max: 2.115631522
nuTilda Residual Norm2: 3.863578217e-05
nuTilda Residual Mean: 1.170779643e-07
nuTilda Residual Max: 1.034033536e-05
phi Residual Norm2: 4.010357651e-05
phi Residual Mean: 1.931043759e-07
phi Residual Max: 9.150669004e-06
End

Computing surface forces 
 Total force: 
 Fx = 2.693170e+04 
 Fy = 2.968418e+05 
 Fz = -1.708606e+04 
 NL: NLBGS 5 ; 2.76584317e-06 0.00179803474 
 
 
 +------------------------------------------------------+ 
 |          Evaluating Objective Functions 013          | 
 +------------------------------------------------------+ 
 Setting up primal boundary conditions based on pyOptions: 
Setting primal boundary conditions...
Setting U = (199.8781654 6.979899341 0) at inout
Setting primal boundary conditions...
Setting p = 101325 at inout
Setting primal boundary conditions...
Setting T = 300 at inout
Setting primal boundary conditions...
Setting nuTilda = 4.5e-05 at inout
Setting nut wall BC for wing. BCType=nutLowReWallFunction
Running Primal Solver 013 
 Previous solution time 38 found and deleted. 
 No finite volume options present

Starting time loop

Checking mesh quality for time = 0
    Overall domain bounding box (-202.9963125 -212.6450445 0) (234.5307242 213.4131799 252.0394877)
    Mesh has 3 geometric (non-empty/wedge) directions 3{1}
    Mesh has 3 solution (non-empty) directions 3{1}
    Boundary openness (-4.093814647e-18 3.888971964e-17 4.429113193e-17) OK.
    Max cell openness = 2.582916434e-15 OK.
    Max aspect ratio = 72.42632408 OK.
    Minimum face area = 6.73794684e-05. Maximum face area = 6482.793424.  Face area magnitudes OK.
    Min volume = 0.000197709732. Max volume = 97718.74796.  Total volume = 24497385.16.  Cell volumes OK.
    Mesh non-orthogonality Max: 52.28011532 average: 13.82540085
    Non-orthogonality check OK.
    Face pyramids OK.
    Max skewness = 5.824708272 OK.
    Coupled point location match (average 0) OK.

Mesh OK.

Time = 1

U Initial residual: (1.100810755e-05 0.0004421294604 4.68763049e-05)
U   Final residual: (5.91885186e-07 2.469637192e-05 3.90336338e-06)
he Initial residual: 1.883503176e-05
he   Final residual: 9.177618099e-07
p Initial residual: 0.0007086686052
p   Final residual: 6.411681148e-05
Time step continuity errors : sum local = 4.505914078e-07
                                 global = -1.070884809e-08
                             cumulative = -0.009066966778
nuTilda Initial residual: 5.931555084e-10
          Final residual: 3.251718898e-11
Bounding nuTilda>1e-16
yPlus min: 219.7719344 max: 1436.186062 mean: 523.3561151
CD-part1-force: 0.03480661301
CL-part1-force: 0.27613889
ExecutionTime = 50.23 s  ClockTime = 52 s

Time = 38
Minimal residual 7.719731075e-09 satisfied the prescribed tolerance 1e-08

CD-part1-force: 0.03480662134
CL-part1-force: 0.2761388039
Printing Primal Residual Statistics.
U Residual Norm2: (0.03241634374 0.02691559297 0.03155032161)
U Residual Mean: (0.0002083030084 0.0001706550429 0.0002172113566)
U Residual Max: (0.01147610728 0.009683636301 0.005563859039)
p Residual Norm2: 0.00216612313
p Residual Mean: 7.879767694e-06
p Residual Max: 0.0009841012242
T Residual Norm2: 7.144421776
T Residual Mean: 0.04636567417
T Residual Max: 2.115630954
nuTilda Residual Norm2: 3.863577794e-05
nuTilda Residual Mean: 1.170785137e-07
nuTilda Residual Max: 1.034032866e-05
phi Residual Norm2: 4.010356831e-05
phi Residual Mean: 1.931043475e-07
phi Residual Max: 9.150668845e-06
End

Computing surface forces 
 Total force: 
 Fx = 2.693170e+04 
 Fy = 2.968418e+05 
 Fz = -1.708606e+04 
 NL: NLBGS 6 ; 1.55130234e-07 0.000100847927 
 
 
 +------------------------------------------------------+ 
 |          Evaluating Objective Functions 014          | 
 +------------------------------------------------------+ 
 Setting up primal boundary conditions based on pyOptions: 
Setting primal boundary conditions...
Setting U = (199.8781654 6.979899341 0) at inout
Setting primal boundary conditions...
Setting p = 101325 at inout
Setting primal boundary conditions...
Setting T = 300 at inout
Setting primal boundary conditions...
Setting nuTilda = 4.5e-05 at inout
Setting nut wall BC for wing. BCType=nutLowReWallFunction
Running Primal Solver 014 
 Previous solution time 38 found and deleted. 
 No finite volume options present

Starting time loop

Checking mesh quality for time = 0
    Overall domain bounding box (-202.9963125 -212.6450445 0) (234.5307242 213.4131799 252.0394877)
    Mesh has 3 geometric (non-empty/wedge) directions 3{1}
    Mesh has 3 solution (non-empty) directions 3{1}
    Boundary openness (2.251351899e-18 2.56307424e-17 3.323284856e-17) OK.
    Max cell openness = 4.181970202e-15 OK.
    Max aspect ratio = 72.42632408 OK.
    Minimum face area = 6.73794684e-05. Maximum face area = 6482.793424.  Face area magnitudes OK.
    Min volume = 0.000197709732. Max volume = 97718.74796.  Total volume = 24497385.16.  Cell volumes OK.
    Mesh non-orthogonality Max: 52.28011532 average: 13.82540085
    Non-orthogonality check OK.
    Face pyramids OK.
    Max skewness = 5.824708272 OK.
    Coupled point location match (average 0) OK.

Mesh OK.

Time = 1

U Initial residual: (1.100810755e-05 0.0004421294605 4.68763049e-05)
U   Final residual: (5.918851859e-07 2.469637192e-05 3.903363381e-06)
he Initial residual: 1.883503175e-05
he   Final residual: 9.177618095e-07
p Initial residual: 0.0007086686051
p   Final residual: 6.411681139e-05
Time step continuity errors : sum local = 4.505914074e-07
                                 global = -1.070884978e-08
                             cumulative = -0.009066977486
nuTilda Initial residual: 5.931555174e-10
          Final residual: 3.251718691e-11
Bounding nuTilda>1e-16
yPlus min: 219.7719344 max: 1436.186062 mean: 523.3561151
CD-part1-force: 0.03480661301
CL-part1-force: 0.27613889
ExecutionTime = 51.4 s  ClockTime = 54 s

Time = 38
Minimal residual 7.719732829e-09 satisfied the prescribed tolerance 1e-08

CD-part1-force: 0.03480662134
CL-part1-force: 0.2761388039
Printing Primal Residual Statistics.
U Residual Norm2: (0.03241634737 0.02691559278 0.0315503209)
U Residual Mean: (0.000208303036 0.0001706550197 0.000217211354)
U Residual Max: (0.01147610981 0.00968363713 0.005563858553)
p Residual Norm2: 0.002166123497
p Residual Mean: 7.87976869e-06
p Residual Max: 0.0009841011855
T Residual Norm2: 7.144420658
T Residual Mean: 0.04636567012
T Residual Max: 2.115632092
nuTilda Residual Norm2: 3.863577892e-05
nuTilda Residual Mean: 1.170786037e-07
nuTilda Residual Max: 1.034032807e-05
phi Residual Norm2: 4.010357246e-05
phi Residual Mean: 1.931043543e-07
phi Residual Max: 9.150669487e-06
End

Computing surface forces 
 Total force: 
 Fx = 2.693170e+04 
 Fy = 2.968418e+05 
 Fz = -1.708606e+04 
 NL: NLBGS 7 ; 3.41209224e-08 2.21815194e-05 
 
 
 +------------------------------------------------------+ 
 |          Evaluating Objective Functions 015          | 
 +------------------------------------------------------+ 
 Setting up primal boundary conditions based on pyOptions: 
Setting primal boundary conditions...
Setting U = (199.8781654 6.979899341 0) at inout
Setting primal boundary conditions...
Setting p = 101325 at inout
Setting primal boundary conditions...
Setting T = 300 at inout
Setting primal boundary conditions...
Setting nuTilda = 4.5e-05 at inout
Setting nut wall BC for wing. BCType=nutLowReWallFunction
Running Primal Solver 015 
 Previous solution time 38 found and deleted. 
 No finite volume options present

Starting time loop

Checking mesh quality for time = 0
    Overall domain bounding box (-202.9963125 -212.6450445 0) (234.5307242 213.4131799 252.0394877)
    Mesh has 3 geometric (non-empty/wedge) directions 3{1}
    Mesh has 3 solution (non-empty) directions 3{1}
    Boundary openness (1.10923406e-17 2.562929033e-17 6.858958729e-17) OK.
    Max cell openness = 2.438704432e-15 OK.
    Max aspect ratio = 72.42632408 OK.
    Minimum face area = 6.73794684e-05. Maximum face area = 6482.793424.  Face area magnitudes OK.
    Min volume = 0.000197709732. Max volume = 97718.74796.  Total volume = 24497385.16.  Cell volumes OK.
    Mesh non-orthogonality Max: 52.28011532 average: 13.82540085
    Non-orthogonality check OK.
    Face pyramids OK.
    Max skewness = 5.824708272 OK.
    Coupled point location match (average 0) OK.

Mesh OK.

Time = 1

U Initial residual: (1.100810755e-05 0.0004421294604 4.68763049e-05)
U   Final residual: (5.918851864e-07 2.469637192e-05 3.903363381e-06)
he Initial residual: 1.883503178e-05
he   Final residual: 9.177618118e-07
p Initial residual: 0.0007086686052
p   Final residual: 6.411681151e-05
Time step continuity errors : sum local = 4.505914087e-07
                                 global = -1.070884809e-08
                             cumulative = -0.009066988195
nuTilda Initial residual: 5.931555189e-10
          Final residual: 3.251718657e-11
Bounding nuTilda>1e-16
yPlus min: 219.7719344 max: 1436.186062 mean: 523.3561151
CD-part1-force: 0.03480661301
CL-part1-force: 0.27613889
ExecutionTime = 52.6 s  ClockTime = 55 s

Time = 38
Minimal residual 7.719741324e-09 satisfied the prescribed tolerance 1e-08

CD-part1-force: 0.03480662134
CL-part1-force: 0.2761388039
Printing Primal Residual Statistics.
U Residual Norm2: (0.03241635319 0.02691559858 0.03155032085)
U Residual Mean: (0.0002083030455 0.0001706550616 0.000217211349)
U Residual Max: (0.01147610728 0.009683641161 0.005563859178)
p Residual Norm2: 0.002166123627
p Residual Mean: 7.879768686e-06
p Residual Max: 0.0009841012599
T Residual Norm2: 7.144420375
T Residual Mean: 0.04636567444
T Residual Max: 2.115630951
nuTilda Residual Norm2: 3.863577953e-05
nuTilda Residual Mean: 1.170786332e-07
nuTilda Residual Max: 1.034032742e-05
phi Residual Norm2: 4.010357186e-05
phi Residual Mean: 1.931043529e-07
phi Residual Max: 9.15066964e-06
End

Computing surface forces 
 Total force: 
 Fx = 2.693170e+04 
 Fy = 2.968418e+05 
 Fz = -1.708606e+04 
 NL: NLBGS 8 ; 1.50185879e-08 9.7633673e-06 
 
 
 +------------------------------------------------------+ 
 |          Evaluating Objective Functions 016          | 
 +------------------------------------------------------+ 
 Setting up primal boundary conditions based on pyOptions: 
Setting primal boundary conditions...
Setting U = (199.8781654 6.979899341 0) at inout
Setting primal boundary conditions...
Setting p = 101325 at inout
Setting primal boundary conditions...
Setting T = 300 at inout
Setting primal boundary conditions...
Setting nuTilda = 4.5e-05 at inout
Setting nut wall BC for wing. BCType=nutLowReWallFunction
Running Primal Solver 016 
 Previous solution time 38 found and deleted. 
 No finite volume options present

Starting time loop

Checking mesh quality for time = 0
    Overall domain bounding box (-202.9963125 -212.6450445 0) (234.5307242 213.4131799 252.0394877)
    Mesh has 3 geometric (non-empty/wedge) directions 3{1}
    Mesh has 3 solution (non-empty) directions 3{1}
    Boundary openness (1.081624095e-17 3.888581654e-17 4.87046631e-17) OK.
    Max cell openness = 2.398007124e-15 OK.
    Max aspect ratio = 72.42632408 OK.
    Minimum face area = 6.73794684e-05. Maximum face area = 6482.793424.  Face area magnitudes OK.
    Min volume = 0.000197709732. Max volume = 97718.74796.  Total volume = 24497385.16.  Cell volumes OK.
    Mesh non-orthogonality Max: 52.28011532 average: 13.82540085
    Non-orthogonality check OK.
    Face pyramids OK.
    Max skewness = 5.824708272 OK.
    Coupled point location match (average 0) OK.

Mesh OK.

Time = 1

U Initial residual: (1.100810755e-05 0.0004421294604 4.68763049e-05)
U   Final residual: (5.918851861e-07 2.469637191e-05 3.903363381e-06)
he Initial residual: 1.883503174e-05
he   Final residual: 9.177618054e-07
p Initial residual: 0.0007086686053
p   Final residual: 6.411681158e-05
Time step continuity errors : sum local = 4.505914083e-07
                                 global = -1.07088492e-08
                             cumulative = -0.009066998904
nuTilda Initial residual: 5.931555191e-10
          Final residual: 3.25171865e-11
Bounding nuTilda>1e-16
yPlus min: 219.7719344 max: 1436.186062 mean: 523.3561151
CD-part1-force: 0.03480661301
CL-part1-force: 0.27613889
ExecutionTime = 53.74 s  ClockTime = 56 s

Time = 38
Minimal residual 7.719727115e-09 satisfied the prescribed tolerance 1e-08

CD-part1-force: 0.03480662134
CL-part1-force: 0.2761388039
Printing Primal Residual Statistics.
U Residual Norm2: (0.0324163546 0.02691559596 0.03155032058)
U Residual Mean: (0.0002083030461 0.0001706550389 0.0002172113568)
U Residual Max: (0.01147611094 0.009683641867 0.005563858449)
p Residual Norm2: 0.002166123215
p Residual Mean: 7.879768018e-06
p Residual Max: 0.0009841010132
T Residual Norm2: 7.144420805
T Residual Mean: 0.04636566926
T Residual Max: 2.115631523
nuTilda Residual Norm2: 3.863577855e-05
nuTilda Residual Mean: 1.170786279e-07
nuTilda Residual Max: 1.034032743e-05
phi Residual Norm2: 4.010356958e-05
phi Residual Mean: 1.93104353e-07
phi Residual Max: 9.150667831e-06
End

Computing surface forces 
 Total force: 
 Fx = 2.693170e+04 
 Fy = 2.968418e+05 
 Fz = -1.708606e+04 
 NL: NLBGS 9 ; 7.35210022e-09 4.77949429e-06 
 NL: NLBGS Converged 
 Nonlinear constraints 
 { 'cruise.aero_post.CL' :  array([0.2761388038889961]) ,
  'geometry.thickcon' :  array([1.                , 1.                , 0.9999999999999993,
       0.9999999999999992, 1.                , 0.9999999999999998,
       1.                , 0.9999999999999996, 0.999999999999999 ,
       1.0000000000000044, 0.9999999999999998, 1.0000000000000007,
       0.9999999999999994, 0.9999999999999996, 1.                ,
       0.9999999999999999, 0.9999999999999997, 0.9999999999999998,
       1.0000000000000009, 0.9999999999999992, 0.9999999999999996,
       1.0000000000000002, 0.9999999999999998, 1.0000000000000004,
       0.9999999999999996, 0.9999999999999998, 1.                ,
       0.9999999999999998, 1.0000000000000002, 1.0000000000000013,
       1.0000000000000002, 1.0000000000000004, 1.0000000000000004,
       0.9999999999999998, 1.0000000000000002, 1.0000000000000002,
       1.0000000000000004, 1.0000000000000002, 1.0000000000000018,
       1.0000000000000009, 0.9999999999999999, 1.                ,
       0.9999999999999997, 0.9999999999999999, 0.9999999999999997,
       1.0000000000000004, 1.0000000000000002, 0.9999999999999999,
       1.0000000000000009, 1.000000000000006 , 0.9999999999999891,
       0.9999999999999993, 1.0000000000000007, 0.9999999999999997,
       1.0000000000000007, 1.0000000000000058, 1.                ,
       0.9999999999999957, 0.9999999999999989, 1.0000000000000797,
       0.9999999999999996, 0.9999999999999998, 1.                ,
       0.999999999999999 , 1.000000000000001 , 1.0000000000000002,
[...]
        0.0171700616790353,  0.0119286138080403,  0.0121243362685853,
        0.0079053052392333,  0.0050392871199525,  0.0020761862987928]) ,
  'dvs.twist' :  array([0.0012854091933786, 0.0008527757599384, 0.0009799986347268,
       0.0006333346907101, 0.0005152614339472, 0.0002762756940602,
       0.0000686624057332]) } 
 
 
===============
cruise.coupling
=============== 
 
 
 +------------------------------------------------------+ 
 |          Evaluating Objective Functions 034          | 
 +------------------------------------------------------+ 
 Setting up primal boundary conditions based on pyOptions: 
Setting primal boundary conditions...
Setting U = (199.8774079 7.001557953 0) at inout
Setting primal boundary conditions...
Setting p = 101325 at inout
Setting primal boundary conditions...
Setting T = 300 at inout
Setting primal boundary conditions...
Setting nuTilda = 4.5e-05 at inout
Setting nut wall BC for wing. BCType=nutLowReWallFunction
Running Primal Solver 034 
 Previous solution time 38 not found and nothing deleted. 
 No finite volume options present

Starting time loop

Checking mesh quality for time = 0
    Overall domain bounding box (-202.9967247 -212.6251876 0) (234.5302899 213.4330519 252.0395254)
    Mesh has 3 geometric (non-empty/wedge) directions 3{1}
    Mesh has 3 solution (non-empty) directions 3{1}
    Boundary openness (-2.982671125e-18 -1.382669198e-17 -3.445222201e-17) OK.
    Max cell openness = 6.269888338e-15 OK.
    Max aspect ratio = 84.71562626 OK.
    Minimum face area = 6.74824119e-05. Maximum face area = 6482.795605.  Face area magnitudes OK.
    Min volume = 0.000197726398. Max volume = 97718.57387.  Total volume = 24497388.41.  Cell volumes OK.
    Mesh non-orthogonality Max: 52.33844993 average: 13.84223941
    Non-orthogonality check OK.
    Face pyramids OK.
    Max skewness = 5.972198363 OK.
    Coupled point location match (average 0) OK.

Mesh OK.

Time = 1

U Initial residual: (1.151995021e-05 0.0004160043303 5.11464372e-05)
U   Final residual: (6.133304759e-07 2.331829334e-05 4.260598592e-06)
he Initial residual: 2.014076881e-05
he   Final residual: 9.683542937e-07
p Initial residual: 0.0007570468031
p   Final residual: 6.944700913e-05
Time step continuity errors : sum local = 4.905550082e-07
                                 global = -1.099910782e-08
                             cumulative = -0.009066779199
nuTilda Initial residual: 6.305400671e-10
          Final residual: 3.462183014e-11
Bounding nuTilda>1e-16
yPlus min: 220.7997873 max: 1452.857841 mean: 523.7244966
CD-part1-force: 0.03451951593
CL-part1-force: 0.29998277
ExecutionTime = 179.35 s  ClockTime = 177 s

Time = 38
Minimal residual 8.868720717e-09 satisfied the prescribed tolerance 1e-08

CD-part1-force: 0.03451952489
CL-part1-force: 0.2999826755
Printing Primal Residual Statistics.
U Residual Norm2: (0.03514692449 0.02836010144 0.03254171391)
U Residual Mean: (0.0002249631367 0.0001801116309 0.0002209022441)
U Residual Max: (0.01247730357 0.01065818643 0.005590608086)
p Residual Norm2: 0.002238598332
p Residual Mean: 8.201415262e-06
p Residual Max: 0.0009991432806
T Residual Norm2: 7.906568114
T Residual Mean: 0.05168805714
T Residual Max: 2.185843441
nuTilda Residual Norm2: 3.728873996e-05
nuTilda Residual Mean: 1.21021159e-07
nuTilda Residual Max: 9.556139079e-06
phi Residual Norm2: 4.176396915e-05
phi Residual Mean: 2.014633118e-07
phi Residual Max: 9.320352399e-06
End

Computing surface forces 
 Total force: 
 Fx = 2.569835e+04 
 Fy = 3.223531e+05 
 Fz = -1.804924e+04 
 NL: NLBGS 1 ; 8.60290411e-07 1 
 
 
 +------------------------------------------------------+ 
 |          Evaluating Objective Functions 035          | 
 +------------------------------------------------------+ 
 Setting up primal boundary conditions based on pyOptions: 
Setting primal boundary conditions...
Setting U = (199.8774079 7.001557953 0) at inout
Setting primal boundary conditions...
Setting p = 101325 at inout
Setting primal boundary conditions...
Setting T = 300 at inout
Setting primal boundary conditions...
Setting nuTilda = 4.5e-05 at inout
Setting nut wall BC for wing. BCType=nutLowReWallFunction
Running Primal Solver 035 
 Previous solution time 38 found and deleted. 
 No finite volume options present

Starting time loop

Checking mesh quality for time = 0
    Overall domain bounding box (-202.9967247 -212.6251876 0) (234.5302899 213.4330519 252.0395254)
    Mesh has 3 geometric (non-empty/wedge) directions 3{1}
    Mesh has 3 solution (non-empty) directions 3{1}
    Boundary openness (-1.331050794e-17 -3.203926125e-17 -3.846122955e-18) OK.
    Max cell openness = 2.78004608e-15 OK.
    Max aspect ratio = 84.71562626 OK.
    Minimum face area = 6.74824119e-05. Maximum face area = 6482.795605.  Face area magnitudes OK.
    Min volume = 0.000197726398. Max volume = 97718.57387.  Total volume = 24497388.41.  Cell volumes OK.
    Mesh non-orthogonality Max: 52.33844993 average: 13.84223941
    Non-orthogonality check OK.
    Face pyramids OK.
    Max skewness = 5.972198363 OK.
    Coupled point location match (average 0) OK.

Mesh OK.

Time = 1

U Initial residual: (1.151995021e-05 0.0004160043303 5.11464372e-05)
U   Final residual: (6.133304761e-07 2.331829335e-05 4.260598592e-06)
he Initial residual: 2.014076881e-05
he   Final residual: 9.683542933e-07
p Initial residual: 0.0007570468029
p   Final residual: 6.944700922e-05
Time step continuity errors : sum local = 4.905550092e-07
                                 global = -1.09991076e-08
                             cumulative = -0.009066790198
nuTilda Initial residual: 6.305400464e-10
          Final residual: 3.462181974e-11
Bounding nuTilda>1e-16
yPlus min: 220.7997873 max: 1452.857841 mean: 523.7244966
CD-part1-force: 0.03451951593
CL-part1-force: 0.29998277
ExecutionTime = 180.3 s  ClockTime = 178 s

Time = 38
Minimal residual 8.868709657e-09 satisfied the prescribed tolerance 1e-08

CD-part1-force: 0.03451952489
CL-part1-force: 0.2999826755
Printing Primal Residual Statistics.
U Residual Norm2: (0.03514693482 0.02836010215 0.0325417101)
U Residual Mean: (0.0002249631874 0.0001801116253 0.0002209022332)
U Residual Max: (0.01247730782 0.01065818449 0.005590605814)
p Residual Norm2: 0.00223859853
p Residual Mean: 8.201414739e-06
p Residual Max: 0.0009991434976
T Residual Norm2: 7.906566231
T Residual Mean: 0.05168804445
T Residual Max: 2.185845144
nuTilda Residual Norm2: 3.728875818e-05
nuTilda Residual Mean: 1.210215286e-07
nuTilda Residual Max: 9.556138517e-06
phi Residual Norm2: 4.176396895e-05
phi Residual Mean: 2.01463292e-07
phi Residual Max: 9.320354415e-06
End

Computing surface forces 
 Total force: 
 Fx = 2.569835e+04 
 Fy = 3.223531e+05 
 Fz = -1.804924e+04 
 NL: NLBGS 2 ; 2.12371479e-07 0.246860218 
 
 
 +------------------------------------------------------+ 
 |          Evaluating Objective Functions 036          | 
 +------------------------------------------------------+ 
 Setting up primal boundary conditions based on pyOptions: 
Setting primal boundary conditions...
Setting U = (199.8774079 7.001557953 0) at inout
Setting primal boundary conditions...
Setting p = 101325 at inout
Setting primal boundary conditions...
Setting T = 300 at inout
Setting primal boundary conditions...
Setting nuTilda = 4.5e-05 at inout
Setting nut wall BC for wing. BCType=nutLowReWallFunction
Running Primal Solver 036 
 Previous solution time 38 found and deleted. 
 No finite volume options present

Starting time loop

Checking mesh quality for time = 0
    Overall domain bounding box (-202.9967247 -212.6251876 0) (234.5302899 213.4330519 252.0395254)
    Mesh has 3 geometric (non-empty/wedge) directions 3{1}
    Mesh has 3 solution (non-empty) directions 3{1}
    Boundary openness (-1.133431213e-17 -2.7908379e-17 -2.032806672e-17) OK.
    Max cell openness = 5.360336282e-15 OK.
    Max aspect ratio = 84.71562626 OK.
    Minimum face area = 6.74824119e-05. Maximum face area = 6482.795605.  Face area magnitudes OK.
    Min volume = 0.000197726398. Max volume = 97718.57387.  Total volume = 24497388.41.  Cell volumes OK.
    Mesh non-orthogonality Max: 52.33844993 average: 13.84223941
    Non-orthogonality check OK.
    Face pyramids OK.
    Max skewness = 5.972198363 OK.
    Coupled point location match (average 0) OK.

Mesh OK.

Time = 1

U Initial residual: (1.151995021e-05 0.0004160043302 5.114643721e-05)
U   Final residual: (6.133304764e-07 2.331829334e-05 4.260598592e-06)
he Initial residual: 2.014076883e-05
he   Final residual: 9.683542958e-07
p Initial residual: 0.0007570468029
p   Final residual: 6.944700914e-05
Time step continuity errors : sum local = 4.905550092e-07
                                 global = -1.099910739e-08
                             cumulative = -0.009066801197
nuTilda Initial residual: 6.305400441e-10
          Final residual: 3.462181861e-11
Bounding nuTilda>1e-16
yPlus min: 220.7997873 max: 1452.857841 mean: 523.7244966
CD-part1-force: 0.03451951593
CL-part1-force: 0.29998277
ExecutionTime = 181.33 s  ClockTime = 179 s

Time = 38
Minimal residual 8.868717359e-09 satisfied the prescribed tolerance 1e-08

CD-part1-force: 0.03451952489
CL-part1-force: 0.2999826755
Printing Primal Residual Statistics.
U Residual Norm2: (0.03514693559 0.02836009769 0.03254170857)
U Residual Mean: (0.0002249631964 0.0001801115829 0.0002209022153)
U Residual Max: (0.01247730584 0.01065818278 0.00559060506)
p Residual Norm2: 0.002238598462
p Residual Mean: 8.201414679e-06
p Residual Max: 0.0009991433779
T Residual Norm2: 7.906568783
T Residual Mean: 0.0516880531
T Residual Max: 2.185846278
nuTilda Residual Norm2: 3.728875369e-05
nuTilda Residual Mean: 1.210215806e-07
nuTilda Residual Max: 9.556136271e-06
phi Residual Norm2: 4.176396604e-05
phi Residual Mean: 2.014632771e-07
phi Residual Max: 9.320353604e-06
End

Computing surface forces 
 Total force: 
 Fx = 2.569835e+04 
 Fy = 3.223531e+05 
 Fz = -1.804924e+04 
 NL: NLBGS 3 ; 4.65687577e-08 0.0541314388 
 
 
 +------------------------------------------------------+ 
 |          Evaluating Objective Functions 037          | 
 +------------------------------------------------------+ 
 Setting up primal boundary conditions based on pyOptions: 
Setting primal boundary conditions...
Setting U = (199.8774079 7.001557953 0) at inout
Setting primal boundary conditions...
Setting p = 101325 at inout
Setting primal boundary conditions...
Setting T = 300 at inout
Setting primal boundary conditions...
Setting nuTilda = 4.5e-05 at inout
Setting nut wall BC for wing. BCType=nutLowReWallFunction
Running Primal Solver 037 
 Previous solution time 38 found and deleted. 
 No finite volume options present

Starting time loop

Checking mesh quality for time = 0
    Overall domain bounding box (-202.9967247 -212.6251876 0) (234.5302899 213.4330519 252.0395254)
    Mesh has 3 geometric (non-empty/wedge) directions 3{1}
    Mesh has 3 solution (non-empty) directions 3{1}
    Boundary openness (-1.190512472e-17 -2.459029689e-17 -3.581982194e-17) OK.
    Max cell openness = 4.15083671e-15 OK.
    Max aspect ratio = 84.71562626 OK.
    Minimum face area = 6.74824119e-05. Maximum face area = 6482.795605.  Face area magnitudes OK.
    Min volume = 0.000197726398. Max volume = 97718.57387.  Total volume = 24497388.41.  Cell volumes OK.
    Mesh non-orthogonality Max: 52.33844993 average: 13.84223941
    Non-orthogonality check OK.
    Face pyramids OK.
    Max skewness = 5.972198363 OK.
    Coupled point location match (average 0) OK.

Mesh OK.

Time = 1

U Initial residual: (1.151995021e-05 0.0004160043302 5.11464372e-05)
U   Final residual: (6.133304757e-07 2.331829334e-05 4.260598592e-06)
he Initial residual: 2.014076881e-05
he   Final residual: 9.683543049e-07
p Initial residual: 0.0007570468029
p   Final residual: 6.944700922e-05
Time step continuity errors : sum local = 4.905550086e-07
                                 global = -1.099910828e-08
                             cumulative = -0.009066812197
nuTilda Initial residual: 6.305400431e-10
          Final residual: 3.462181823e-11
Bounding nuTilda>1e-16
yPlus min: 220.7997873 max: 1452.857841 mean: 523.7244966
CD-part1-force: 0.03451951593
CL-part1-force: 0.29998277
ExecutionTime = 182.4 s  ClockTime = 180 s

Time = 38
Minimal residual 8.868720407e-09 satisfied the prescribed tolerance 1e-08

CD-part1-force: 0.03451952489
CL-part1-force: 0.2999826755
Printing Primal Residual Statistics.
U Residual Norm2: (0.03514693702 0.02836010022 0.03254170776)
U Residual Mean: (0.0002249631996 0.000180111578 0.0002209022127)
U Residual Max: (0.01247730443 0.01065819048 0.005590604891)
p Residual Norm2: 0.0022385983
p Residual Mean: 8.20141436e-06
p Residual Max: 0.0009991433834
T Residual Norm2: 7.906568307
T Residual Mean: 0.05168805211
T Residual Max: 2.185844011
nuTilda Residual Norm2: 3.728875664e-05
nuTilda Residual Mean: 1.210215992e-07
nuTilda Residual Max: 9.556136903e-06
phi Residual Norm2: 4.176396576e-05
phi Residual Mean: 2.014632753e-07
phi Residual Max: 9.320353369e-06
End

Computing surface forces 
 Total force: 
 Fx = 2.569835e+04 
 Fy = 3.223531e+05 
 Fz = -1.804924e+04 
 NL: NLBGS 4 ; 1.18899825e-08 0.0138208939 
 
 
 +------------------------------------------------------+ 
 |          Evaluating Objective Functions 038          | 
 +------------------------------------------------------+ 
 Setting up primal boundary conditions based on pyOptions: 
Setting primal boundary conditions...
Setting U = (199.8774079 7.001557953 0) at inout
Setting primal boundary conditions...
Setting p = 101325 at inout
Setting primal boundary conditions...
Setting T = 300 at inout
Setting primal boundary conditions...
Setting nuTilda = 4.5e-05 at inout
Setting nut wall BC for wing. BCType=nutLowReWallFunction
Running Primal Solver 038 
 Previous solution time 38 found and deleted. 
 No finite volume options present

Starting time loop

Checking mesh quality for time = 0
    Overall domain bounding box (-202.9967247 -212.6251876 0) (234.5302899 213.4330519 252.0395254)
    Mesh has 3 geometric (non-empty/wedge) directions 3{1}
    Mesh has 3 solution (non-empty) directions 3{1}
    Boundary openness (-2.37820595e-17 -2.458648864e-17 -3.02926377e-17) OK.
    Max cell openness = 1.555418321e-15 OK.
    Max aspect ratio = 84.71562626 OK.
    Minimum face area = 6.74824119e-05. Maximum face area = 6482.795605.  Face area magnitudes OK.
    Min volume = 0.000197726398. Max volume = 97718.57387.  Total volume = 24497388.41.  Cell volumes OK.
    Mesh non-orthogonality Max: 52.33844993 average: 13.84223941
    Non-orthogonality check OK.
    Face pyramids OK.
    Max skewness = 5.972198363 OK.
    Coupled point location match (average 0) OK.

Mesh OK.

Time = 1

U Initial residual: (1.151995021e-05 0.0004160043303 5.114643721e-05)
U   Final residual: (6.13330476e-07 2.331829334e-05 4.260598592e-06)
he Initial residual: 2.01407688e-05
he   Final residual: 9.683543009e-07
p Initial residual: 0.0007570468032
p   Final residual: 6.944700918e-05
Time step continuity errors : sum local = 4.9055501e-07
                                 global = -1.099910763e-08
                             cumulative = -0.009066823196
nuTilda Initial residual: 6.305400433e-10
          Final residual: 3.462181821e-11
Bounding nuTilda>1e-16
yPlus min: 220.7997873 max: 1452.857841 mean: 523.7244966
CD-part1-force: 0.03451951593
CL-part1-force: 0.29998277
ExecutionTime = 183.49 s  ClockTime = 181 s

Time = 38
Minimal residual 8.868705297e-09 satisfied the prescribed tolerance 1e-08

CD-part1-force: 0.03451952489
CL-part1-force: 0.2999826755
Printing Primal Residual Statistics.
U Residual Norm2: (0.03514693062 0.02836010212 0.03254170958)
U Residual Mean: (0.0002249631869 0.0001801116059 0.0002209022192)
U Residual Max: (0.01247730386 0.0106581876 0.005590605786)
p Residual Norm2: 0.002238598673
p Residual Mean: 8.201416166e-06
p Residual Max: 0.0009991433133
T Residual Norm2: 7.906567255
T Residual Mean: 0.05168805096
T Residual Max: 2.185844577
nuTilda Residual Norm2: 3.728875783e-05
nuTilda Residual Mean: 1.210215997e-07
nuTilda Residual Max: 9.556137324e-06
phi Residual Norm2: 4.176396861e-05
phi Residual Mean: 2.014632882e-07
phi Residual Max: 9.32035391e-06
End

Computing surface forces 
 Total force: 
 Fx = 2.569835e+04 
 Fy = 3.223531e+05 
 Fz = -1.804924e+04 
 NL: NLBGS 5 ; 5.72494604e-09 0.0066546668 
 NL: NLBGS Converged 
 Nonlinear constraints 
 { 'cruise.aero_post.CL' :  array([0.2999826755303601]) ,
  'geometry.thickcon' :  array([0.9869137960035854, 0.9931519617879064, 0.9975388927094065,
       0.9998058978458274, 1.0015503502727878, 1.0040706112951407,
       1.006249841216239 , 1.0071669550190625, 1.006812266752121 ,
       1.005599668521727 , 0.9848120248972865, 0.9915394961523263,
       0.9965723580129686, 0.9996374885925448, 1.00208491464719  ,
       1.0048944656691532, 1.0070934010558605, 1.0079356195520761,
       1.00745572208728  , 1.0060895865595352, 0.9838587870457158,
       0.9906463889282727, 0.9959786954456821, 0.9995987715651586,
       1.0025662634381722, 1.0055171507527572, 1.0076395997615253,
       1.0083688894010483, 1.0077799241218806, 1.006312126365264 ,
       0.9849625595211559, 0.9909261355354845, 0.9958418120907659,
       0.9995219970602712, 1.002682501298847 , 1.0055738749764382,
       1.0075244947539055, 1.0081246372103485, 1.0074809576895227,
       1.0060125653227285, 0.9860718971989848, 0.9905510063181466,
       0.9946018992980478, 0.9981927942873959, 1.0016826873635918,
       1.0048572187643583, 1.007003045722387 , 1.007721856568776 ,
       1.0071467171477788, 1.005715492629658 , 0.986403743476654 ,
       0.9894552871323874, 0.9927023968656171, 0.9962681461555201,
       1.000177226539094 , 1.0038102276925789, 1.0063456788119796,
       1.0073304277388087, 1.0069095478347152, 1.0055542942237565,
       0.9883875363671618, 0.9899304114414567, 0.9922159544056165,
       0.9954311359084472, 0.9991980201001676, 1.0026752000728933,
       1.0051257477126236, 1.0061477191951516, 1.0058681233481115,
       1.0047150706644066, 0.9890228812396024, 0.9891397311911843,
       0.9906599592089376, 0.9937850329490814, 0.9976291745118026,
       1.0011846633194004, 1.0037836704064653, 1.005022516854061 ,
       1.0049726515190764, 1.0040341472865204, 0.9899858402871001,
       0.9894072641272086, 0.9904642309365029, 0.9932430387576848,
       0.9966510053967755, 0.999844765351803 , 1.0022956306299098,
       1.0036233930622969, 1.0038161164396755, 1.003193322198264 ,
       0.9927654335213416, 0.9921675525213325, 0.9928423637761125,
       0.9946987981669746, 0.9969157123672608, 0.9990396984410396,
       1.0007510623713938, 1.0017877687445904, 1.00209809814778  ,
       1.001862061118506 ]) ,
  'geometry.volcon' :  array([0.9999999967938292]) } 
 
 Objectives 
 {'cruise.aero_post.CD': array([0.034519524887344])} 
 
 problem
     final
 outputs
     cruise.aero_post.CD
     cruise.aero_post.CL
     aoa
     shape
     twist
     geometry.lecon
     geometry.tecon
     geometry.thickcon
     geometry.volcon
  problem
     final
 outputs
     cruise.aero_post.CD
     cruise.aero_post.CL
     aoa
     shape
     twist
     geometry.lecon
     geometry.tecon
     geometry.thickcon
     geometry.volcon
 Dictionary Key: cruise.aero_post.CD 
@value  0.03451952488734403 1e-06 1e-08 
 Dictionary Key: cruise.aero_post.CL 
@value   0.2999826755303601 1e-06 1e-08 
  problem
     final
 outputs
     cruise.aero_post.CD
     cruise.aero_post.CL
     aoa
     shape
     twist
     geometry.lecon
     geometry.tecon
     geometry.thickcon
     geometry.volcon
  problem
     final
 outputs
     cruise.aero_post.CD
     cruise.aero_post.CL
     aoa
     shape
     twist
     geometry.lecon
     geometry.tecon
     geometry.thickcon
     geometry.volcon
  Finalising parallel run
Finalising parallel run
Transfer scheme [0]: freeing MELD data...
